
 OpenBabel10012510323D

 44 45  0  0  0  0  0  0  0  0999 V2000
    1.0453   -0.0859   -0.0239 C   0  0  0  0  0  0  0  0  0  0  0  0
    0.5720    1.2025    0.3401 O   0  0  0  0  0  0  0  0  0  0  0  0
    0.9150    1.7543    1.6027 C   0  0  0  0  0  0  0  0  0  0  0  0
   -0.0243    2.4881    2.3083 C   0  0  0  0  0  0  0  0  0  0  0  0
    0.5335    3.3366    3.2938 C   0  0  0  0  0  0  0  0  0  0  0  0
    1.7552    3.2169    3.7807 C   0  0  0  0  0  0  0  0  0  0  0  0
    2.1812    3.9232    5.0574 C   0  0  0  0  0  0  0  0  0  0  0  0
    1.2942    4.7042    5.7312 C   0  0  0  0  0  0  0  0  0  0  0  0
    1.7202    5.4105    7.0079 C   0  0  0  0  0  0  0  0  0  0  0  0
    0.8915    6.1401    7.6373 O   0  0  0  0  0  0  0  0  0  0  0  0
    3.1373    5.2441    7.5319 C   0  0  0  0  0  0  0  0  0  0  0  0
    3.3385    5.0075    8.8817 C   0  0  0  0  0  0  0  0  0  0  0  0
    4.6820    5.1642    9.2971 C   0  0  0  0  0  0  0  0  0  0  0  0
    4.9296    5.3243   10.6862 O   0  0  0  0  0  0  0  0  0  0  0  0
    6.2598    5.4853   11.1564 C   0  0  0  0  0  0  0  0  0  0  0  0
    5.7217    5.1719    8.4829 C   0  0  0  0  0  0  0  0  0  0  0  0
    7.0488    5.0128    8.9624 O   0  0  0  0  0  0  0  0  0  0  0  0
    8.1389    5.0271    8.0525 C   0  0  0  0  0  0  0  0  0  0  0  0
    5.4515    5.3413    7.1533 C   0  0  0  0  0  0  0  0  0  0  0  0
    6.5224    5.5311    6.2403 O   0  0  0  0  0  0  0  0  0  0  0  0
    6.2534    5.7080    4.8573 C   0  0  0  0  0  0  0  0  0  0  0  0
    4.1588    5.3306    6.6879 C   0  0  0  0  0  0  0  0  0  0  0  0
    2.6163    2.4235    3.0746 C   0  0  0  0  0  0  0  0  0  0  0  0
    2.1732    1.6653    2.0179 C   0  0  0  0  0  0  0  0  0  0  0  0
    0.6886   -0.3338   -1.0018 H   0  0  0  0  0  0  0  0  0  0  0  0
    0.6886   -0.8088    0.6797 H   0  0  0  0  0  0  0  0  0  0  0  0
    2.1153   -0.0859   -0.0239 H   0  0  0  0  0  0  0  0  0  0  0  0
   -1.0762    2.4195    2.1248 H   0  0  0  0  0  0  0  0  0  0  0  0
   -0.0771    4.1303    3.6706 H   0  0  0  0  0  0  0  0  0  0  0  0
    3.1787    3.8061    5.4263 H   0  0  0  0  0  0  0  0  0  0  0  0
    0.2966    4.8213    5.3623 H   0  0  0  0  0  0  0  0  0  0  0  0
    2.5496    4.7314    9.5497 H   0  0  0  0  0  0  0  0  0  0  0  0
    6.8394    4.6269   10.8877 H   0  0  0  0  0  0  0  0  0  0  0  0
    6.6909    6.3592   10.7146 H   0  0  0  0  0  0  0  0  0  0  0  0
    6.2514    5.5910   12.2211 H   0  0  0  0  0  0  0  0  0  0  0  0
    8.0230    4.2333    7.3445 H   0  0  0  0  0  0  0  0  0  0  0  0
    8.1610    5.9645    7.5370 H   0  0  0  0  0  0  0  0  0  0  0  0
    9.0542    4.8943    8.5905 H   0  0  0  0  0  0  0  0  0  0  0  0
    5.7419    4.8470    4.4804 H   0  0  0  0  0  0  0  0  0  0  0  0
    5.6409    6.5747    4.7211 H   0  0  0  0  0  0  0  0  0  0  0  0
    7.1746    5.8355    4.3282 H   0  0  0  0  0  0  0  0  0  0  0  0
    3.9735    5.3925    5.6359 H   0  0  0  0  0  0  0  0  0  0  0  0
    3.6500    2.3927    3.3489 H   0  0  0  0  0  0  0  0  0  0  0  0
    2.8480    0.9971    1.5250 H   0  0  0  0  0  0  0  0  0  0  0  0
  1  2  1  0  0  0  0
  1 25  1  0  0  0  0
  1 26  1  0  0  0  0
  1 27  1  0  0  0  0
  2  3  1  0  0  0  0
  3  4  1  0  0  0  0
  3 24  2  0  0  0  0
  4  5  2  0  0  0  0
  4 28  1  0  0  0  0
  5  6  1  0  0  0  0
  5 29  1  0  0  0  0
  6  7  1  0  0  0  0
  6 23  2  0  0  0  0
  7  8  2  0  0  0  0
  7 30  1  0  0  0  0
  8  9  1  0  0  0  0
  8 31  1  0  0  0  0
  9 10  2  0  0  0  0
  9 11  1  0  0  0  0
 11 12  1  0  0  0  0
 11 22  2  0  0  0  0
 12 13  2  0  0  0  0
 12 32  1  0  0  0  0
 13 14  1  0  0  0  0
 13 16  1  0  0  0  0
 14 15  1  0  0  0  0
 15 33  1  0  0  0  0
 15 34  1  0  0  0  0
 15 35  1  0  0  0  0
 16 17  1  0  0  0  0
 16 19  2  0  0  0  0
 17 18  1  0  0  0  0
 18 36  1  0  0  0  0
 18 37  1  0  0  0  0
 18 38  1  0  0  0  0
 19 20  1  0  0  0  0
 19 22  1  0  0  0  0
 20 21  1  0  0  0  0
 21 39  1  0  0  0  0
 21 40  1  0  0  0  0
 21 41  1  0  0  0  0
 22 42  1  0  0  0  0
 23 24  1  0  0  0  0
 23 43  1  0  0  0  0
 24 44  1  0  0  0  0
M  END
