
 OpenBabel10012510323D

 35 37  0  0  0  0  0  0  0  0999 V2000
    1.0653    0.0384    0.0653 C   0  0  0  0  0  0  0  0  0  0  0  0
    0.5920    1.3377    0.3879 O   0  0  0  0  0  0  0  0  0  0  0  0
    0.9350    1.9297    1.6322 C   0  0  0  0  0  0  0  0  0  0  0  0
   -0.0025    2.6911    2.3103 C   0  0  0  0  0  0  0  0  0  0  0  0
    0.5573    3.5747    3.2631 C   0  0  0  0  0  0  0  0  0  0  0  0
   -0.2508    4.6476    3.7240 O   0  0  0  0  0  0  0  0  0  0  0  0
    0.2626    5.5633    4.6801 C   0  0  0  0  0  0  0  0  0  0  0  0
    1.7790    3.4711    3.7536 C   0  0  0  0  0  0  0  0  0  0  0  0
    2.6383    2.6502    3.0773 C   0  0  0  0  0  0  0  0  0  0  0  0
    4.1069    2.6183    3.4676 C   0  0  0  0  0  0  0  0  0  0  0  0
    5.0210    1.7575    2.7621 C   0  0  0  0  0  0  0  0  0  0  0  0
    4.5434    0.9270    1.6867 C   0  0  0  0  0  0  0  0  0  0  0  0
    5.3500    0.1674    1.0641 O   0  0  0  0  0  0  0  0  0  0  0  0
    3.0748    0.9590    1.2964 C   0  0  0  0  0  0  0  0  0  0  0  0
    2.4061   -0.2325    1.0686 C   0  0  0  0  0  0  0  0  0  0  0  0
    1.1504   -0.0734    0.4363 C   0  0  0  0  0  0  0  0  0  0  0  0
    0.4794    1.0626    0.3788 C   0  0  0  0  0  0  0  0  0  0  0  0
    1.1786    2.1979    0.6813 C   0  0  0  0  0  0  0  0  0  0  0  0
    2.4570    2.1287    1.1803 C   0  0  0  0  0  0  0  0  0  0  0  0
    4.5530    3.3941    4.4723 O   0  0  0  0  0  0  0  0  0  0  0  0
    2.1932    1.8539    2.0498 C   0  0  0  0  0  0  0  0  0  0  0  0
    0.7086   -0.2406   -0.9042 H   0  0  0  0  0  0  0  0  0  0  0  0
    0.7086   -0.6617    0.7917 H   0  0  0  0  0  0  0  0  0  0  0  0
    2.1353    0.0384    0.0653 H   0  0  0  0  0  0  0  0  0  0  0  0
   -1.0547    2.6177    2.1300 H   0  0  0  0  0  0  0  0  0  0  0  0
    0.5262    5.0361    5.5732 H   0  0  0  0  0  0  0  0  0  0  0  0
    1.1304    6.0460    4.2816 H   0  0  0  0  0  0  0  0  0  0  0  0
   -0.4819    6.2978    4.9061 H   0  0  0  0  0  0  0  0  0  0  0  0
    2.0803    4.0009    4.6331 H   0  0  0  0  0  0  0  0  0  0  0  0
    6.0548    1.7349    3.0369 H   0  0  0  0  0  0  0  0  0  0  0  0
    2.8032   -1.1867    1.3457 H   0  0  0  0  0  0  0  0  0  0  0  0
    0.7142   -0.9332   -0.0277 H   0  0  0  0  0  0  0  0  0  0  0  0
   -0.5559    1.0929    0.1101 H   0  0  0  0  0  0  0  0  0  0  0  0
    0.7238    3.1541    0.5272 H   0  0  0  0  0  0  0  0  0  0  0  0
    2.8666    1.1665    1.5820 H   0  0  0  0  0  0  0  0  0  0  0  0
  1  2  1  0  0  0  0
  1 22  1  0  0  0  0
  1 23  1  0  0  0  0
  1 24  1  0  0  0  0
  2  3  1  0  0  0  0
  3  4  1  0  0  0  0
  3 21  2  0  0  0  0
  4  5  2  0  0  0  0
  4 25  1  0  0  0  0
  5  6  1  0  0  0  0
  5  8  1  0  0  0  0
  6  7  1  0  0  0  0
  7 26  1  0  0  0  0
  7 27  1  0  0  0  0
  7 28  1  0  0  0  0
  8  9  2  0  0  0  0
  8 29  1  0  0  0  0
  9 10  1  0  0  0  0
  9 21  1  0  0  0  0
 10 11  2  0  0  0  0
 10 20  1  0  0  0  0
 11 12  1  0  0  0  0
 11 30  1  0  0  0  0
 12 13  2  0  0  0  0
 12 14  1  0  0  0  0
 14 15  1  0  0  0  0
 14 19  2  0  0  0  0
 15 16  2  0  0  0  0
 15 31  1  0  0  0  0
 16 17  1  0  0  0  0
 16 32  1  0  0  0  0
 17 18  2  0  0  0  0
 17 33  1  0  0  0  0
 18 19  1  0  0  0  0
 18 34  1  0  0  0  0
 19 20  1  0  0  0  0
 21 35  1  0  0  0  0
M  END
