
 OpenBabel10012510323D

 34 35  0  0  0  0  0  0  0  0999 V2000
    1.0270   -0.0662   -0.0699 C   0  0  0  0  0  0  0  0  0  0  0  0
    0.5537    1.2032   -0.4952 O   0  0  0  0  0  0  0  0  0  0  0  0
    0.8967    2.3706    0.2368 C   0  0  0  0  0  0  0  0  0  0  0  0
   -0.0353    3.3833    0.3929 C   0  0  0  0  0  0  0  0  0  0  0  0
    0.5314    4.6397    0.7125 C   0  0  0  0  0  0  0  0  0  0  0  0
   -0.3271    5.8765    0.5031 C   0  0  0  0  0  0  0  0  0  0  0  0
   -1.5940    5.7519    0.0235 C   0  0  0  0  0  0  0  0  0  0  0  0
   -2.4525    6.9887   -0.1859 C   0  0  0  0  0  0  0  0  0  0  0  0
   -3.7699    6.9744    0.2416 C   0  0  0  0  0  0  0  0  0  0  0  0
   -4.5463    8.0467   -0.2578 C   0  0  0  0  0  0  0  0  0  0  0  0
   -4.0480    9.1568   -0.7709 C   0  0  0  0  0  0  0  0  0  0  0  0
   -2.7236    9.1291   -1.1098 C   0  0  0  0  0  0  0  0  0  0  0  0
   -1.9300    8.0596   -0.7718 C   0  0  0  0  0  0  0  0  0  0  0  0
    1.7543    4.8127    1.1801 C   0  0  0  0  0  0  0  0  0  0  0  0
    2.6078    3.7515    1.0578 C   0  0  0  0  0  0  0  0  0  0  0  0
    3.9809    3.9172    1.3795 O   0  0  0  0  0  0  0  0  0  0  0  0
    4.8762    2.8219    1.2562 C   0  0  0  0  0  0  0  0  0  0  0  0
    2.1560    2.5272    0.6280 C   0  0  0  0  0  0  0  0  0  0  0  0
    0.6704   -0.8221   -0.7380 H   0  0  0  0  0  0  0  0  0  0  0  0
    0.6704   -0.2669    0.9188 H   0  0  0  0  0  0  0  0  0  0  0  0
    2.0970   -0.0662   -0.0699 H   0  0  0  0  0  0  0  0  0  0  0  0
   -1.0884    3.2293    0.2819 H   0  0  0  0  0  0  0  0  0  0  0  0
    0.0651    6.8452    0.7330 H   0  0  0  0  0  0  0  0  0  0  0  0
   -1.9862    4.7832   -0.2063 H   0  0  0  0  0  0  0  0  0  0  0  0
   -4.1647    6.2209    0.8907 H   0  0  0  0  0  0  0  0  0  0  0  0
   -5.6113    7.9515   -0.2169 H   0  0  0  0  0  0  0  0  0  0  0  0
   -4.6483   10.0309   -0.9138 H   0  0  0  0  0  0  0  0  0  0  0  0
   -2.2992    9.9521   -1.6459 H   0  0  0  0  0  0  0  0  0  0  0  0
   -0.8814    8.0900   -0.9826 H   0  0  0  0  0  0  0  0  0  0  0  0
    2.0607    5.7336    1.6304 H   0  0  0  0  0  0  0  0  0  0  0  0
    4.5554    2.0254    1.8945 H   0  0  0  0  0  0  0  0  0  0  0  0
    4.8876    2.4831    0.2413 H   0  0  0  0  0  0  0  0  0  0  0  0
    5.8602    3.1320    1.5397 H   0  0  0  0  0  0  0  0  0  0  0  0
    2.8249    1.6922    0.6084 H   0  0  0  0  0  0  0  0  0  0  0  0
  1  2  1  0  0  0  0
  1 19  1  0  0  0  0
  1 20  1  0  0  0  0
  1 21  1  0  0  0  0
  2  3  1  0  0  0  0
  3  4  1  0  0  0  0
  3 18  2  0  0  0  0
  4  5  2  0  0  0  0
  4 22  1  0  0  0  0
  5  6  1  0  0  0  0
  5 14  1  0  0  0  0
  6  7  2  0  0  0  0
  6 23  1  0  0  0  0
  7  8  1  0  0  0  0
  7 24  1  0  0  0  0
  8  9  1  0  0  0  0
  8 13  2  0  0  0  0
  9 10  2  0  0  0  0
  9 25  1  0  0  0  0
 10 11  1  0  0  0  0
 10 26  1  0  0  0  0
 11 12  2  0  0  0  0
 11 27  1  0  0  0  0
 12 13  1  0  0  0  0
 12 28  1  0  0  0  0
 13 29  1  0  0  0  0
 14 15  2  0  0  0  0
 14 30  1  0  0  0  0
 15 16  1  0  0  0  0
 15 18  1  0  0  0  0
 16 17  1  0  0  0  0
 17 31  1  0  0  0  0
 17 32  1  0  0  0  0
 17 33  1  0  0  0  0
 18 34  1  0  0  0  0
M  END
