
 OpenBabel10012510323D

 31 33  0  0  0  0  0  0  0  0999 V2000
    1.0821   -0.0465   -0.0330 C   0  0  0  0  0  0  0  0  0  0  0  0
    0.6088   -1.1283    0.7557 O   0  0  0  0  0  0  0  0  0  0  0  0
    0.9519   -2.4622    0.4102 C   0  0  0  0  0  0  0  0  0  0  0  0
    0.0408   -3.4953    0.4673 C   0  0  0  0  0  0  0  0  0  0  0  0
    0.4450   -4.7931    0.1869 C   0  0  0  0  0  0  0  0  0  0  0  0
    1.7556   -5.0736   -0.1487 C   0  0  0  0  0  0  0  0  0  0  0  0
    2.6526   -4.0178   -0.1925 C   0  0  0  0  0  0  0  0  0  0  0  0
    2.2871   -2.7135    0.0713 C   0  0  0  0  0  0  0  0  0  0  0  0
    3.2845   -1.6158    0.0070 C   0  0  0  0  0  0  0  0  0  0  0  0
    2.9198   -0.4635    0.2508 O   0  0  0  0  0  0  0  0  0  0  0  0
    4.6384   -2.0165   -0.3192 C   0  0  0  0  0  0  0  0  0  0  0  0
    4.9107   -3.3875   -0.5221 C   0  0  0  0  0  0  0  0  0  0  0  0
    3.9594   -4.3444   -0.5079 O   0  0  0  0  0  0  0  0  0  0  0  0
    6.3506   -3.8070   -0.7693 C   0  0  0  0  0  0  0  0  0  0  0  0
    6.6764   -4.4447   -1.9549 C   0  0  0  0  0  0  0  0  0  0  0  0
    7.9596   -5.0410   -1.9513 C   0  0  0  0  0  0  0  0  0  0  0  0
    8.9196   -4.7470   -1.0934 C   0  0  0  0  0  0  0  0  0  0  0  0
    8.5449   -4.0563    0.0254 C   0  0  0  0  0  0  0  0  0  0  0  0
    7.2720   -3.5550    0.1531 C   0  0  0  0  0  0  0  0  0  0  0  0
    0.7255    0.8758    0.3758 H   0  0  0  0  0  0  0  0  0  0  0  0
    0.7255   -0.1536   -1.0361 H   0  0  0  0  0  0  0  0  0  0  0  0
    2.1521   -0.0465   -0.0330 H   0  0  0  0  0  0  0  0  0  0  0  0
   -0.9778   -3.2967    0.7277 H   0  0  0  0  0  0  0  0  0  0  0  0
   -0.2692   -5.5886    0.2313 H   0  0  0  0  0  0  0  0  0  0  0  0
    2.0679   -6.0733   -0.3677 H   0  0  0  0  0  0  0  0  0  0  0  0
    5.4170   -1.2876   -0.4048 H   0  0  0  0  0  0  0  0  0  0  0  0
    6.0176   -4.4829   -2.7972 H   0  0  0  0  0  0  0  0  0  0  0  0
    8.1665   -5.7816   -2.6954 H   0  0  0  0  0  0  0  0  0  0  0  0
    9.9361   -5.0340   -1.2647 H   0  0  0  0  0  0  0  0  0  0  0  0
    9.2530   -3.9039    0.8129 H   0  0  0  0  0  0  0  0  0  0  0  0
    7.0208   -2.9561    1.0035 H   0  0  0  0  0  0  0  0  0  0  0  0
  1  2  1  0  0  0  0
  1 20  1  0  0  0  0
  1 21  1  0  0  0  0
  1 22  1  0  0  0  0
  2  3  1  0  0  0  0
  3  4  2  0  0  0  0
  3  8  1  0  0  0  0
  4  5  1  0  0  0  0
  4 23  1  0  0  0  0
  5  6  2  0  0  0  0
  5 24  1  0  0  0  0
  6  7  1  0  0  0  0
  6 25  1  0  0  0  0
  7  8  2  0  0  0  0
  7 13  1  0  0  0  0
  8  9  1  0  0  0  0
  9 10  2  0  0  0  0
  9 11  1  0  0  0  0
 11 12  2  0  0  0  0
 11 26  1  0  0  0  0
 12 13  1  0  0  0  0
 12 14  1  0  0  0  0
 14 15  2  0  0  0  0
 14 19  1  0  0  0  0
 15 16  1  0  0  0  0
 15 27  1  0  0  0  0
 16 17  2  0  0  0  0
 16 28  1  0  0  0  0
 17 18  1  0  0  0  0
 17 29  1  0  0  0  0
 18 19  2  0  0  0  0
 18 30  1  0  0  0  0
 19 31  1  0  0  0  0
M  END
