
 OpenBabel10012510323D

 35 36  0  0  0  0  0  0  0  0999 V2000
    0.9752   -0.0150    0.0957 C   0  0  0  0  0  0  0  0  0  0  0  0
    0.5019   -0.5878    1.3057 O   0  0  0  0  0  0  0  0  0  0  0  0
    0.8449   -1.9246    1.6403 C   0  0  0  0  0  0  0  0  0  0  0  0
   -0.1370   -2.7415    2.1761 C   0  0  0  0  0  0  0  0  0  0  0  0
    0.3654   -3.9068    2.8020 C   0  0  0  0  0  0  0  0  0  0  0  0
   -0.5532   -4.6462    3.7611 C   0  0  0  0  0  0  0  0  0  0  0  0
   -1.8110   -4.1823    3.9922 C   0  0  0  0  0  0  0  0  0  0  0  0
   -2.7295   -4.9217    4.9513 C   0  0  0  0  0  0  0  0  0  0  0  0
   -4.0754   -5.0928    4.6721 C   0  0  0  0  0  0  0  0  0  0  0  0
   -4.8564   -5.4337    5.8016 C   0  0  0  0  0  0  0  0  0  0  0  0
   -4.3688   -5.9059    6.9344 C   0  0  0  0  0  0  0  0  0  0  0  0
   -5.1993   -6.5240    7.9064 O   0  0  0  0  0  0  0  0  0  0  0  0
   -3.0214   -5.7677    7.1210 C   0  0  0  0  0  0  0  0  0  0  0  0
   -2.2102   -5.3174    6.1076 C   0  0  0  0  0  0  0  0  0  0  0  0
    1.5768   -4.3966    2.6110 C   0  0  0  0  0  0  0  0  0  0  0  0
    2.4826   -3.5635    2.0151 C   0  0  0  0  0  0  0  0  0  0  0  0
    3.8448   -3.9557    1.9318 O   0  0  0  0  0  0  0  0  0  0  0  0
    4.7940   -3.0983    1.3151 C   0  0  0  0  0  0  0  0  0  0  0  0
    2.0937   -2.3523    1.4958 C   0  0  0  0  0  0  0  0  0  0  0  0
    0.6185    0.9905    0.0136 H   0  0  0  0  0  0  0  0  0  0  0  0
    0.6185   -0.5888   -0.7340 H   0  0  0  0  0  0  0  0  0  0  0  0
    2.0452   -0.0150    0.0957 H   0  0  0  0  0  0  0  0  0  0  0  0
   -1.1807   -2.5122    2.1215 H   0  0  0  0  0  0  0  0  0  0  0  0
   -0.2105   -5.5317    4.2546 H   0  0  0  0  0  0  0  0  0  0  0  0
   -2.1537   -3.2968    3.4988 H   0  0  0  0  0  0  0  0  0  0  0  0
   -4.4871   -4.9777    3.6912 H   0  0  0  0  0  0  0  0  0  0  0  0
   -5.9158   -5.2996    5.7331 H   0  0  0  0  0  0  0  0  0  0  0  0
   -4.8015   -6.8723    8.7552 H   0  0  0  0  0  0  0  0  0  0  0  0
   -2.5925   -6.0138    8.0699 H   0  0  0  0  0  0  0  0  0  0  0  0
   -1.1504   -5.2852    6.2514 H   0  0  0  0  0  0  0  0  0  0  0  0
    1.8356   -5.3918    2.9066 H   0  0  0  0  0  0  0  0  0  0  0  0
    4.5116   -2.9269    0.2973 H   0  0  0  0  0  0  0  0  0  0  0  0
    4.8251   -2.1655    1.8385 H   0  0  0  0  0  0  0  0  0  0  0  0
    5.7606   -3.5563    1.3448 H   0  0  0  0  0  0  0  0  0  0  0  0
    2.8035   -1.7483    0.9703 H   0  0  0  0  0  0  0  0  0  0  0  0
  1  2  1  0  0  0  0
  1 20  1  0  0  0  0
  1 21  1  0  0  0  0
  1 22  1  0  0  0  0
  2  3  1  0  0  0  0
  3  4  1  0  0  0  0
  3 19  2  0  0  0  0
  4  5  2  0  0  0  0
  4 23  1  0  0  0  0
  5  6  1  0  0  0  0
  5 15  1  0  0  0  0
  6  7  2  0  0  0  0
  6 24  1  0  0  0  0
  7  8  1  0  0  0  0
  7 25  1  0  0  0  0
  8  9  1  0  0  0  0
  8 14  2  0  0  0  0
  9 10  2  0  0  0  0
  9 26  1  0  0  0  0
 10 11  1  0  0  0  0
 10 27  1  0  0  0  0
 11 12  1  0  0  0  0
 11 13  2  0  0  0  0
 12 28  1  0  0  0  0
 13 14  1  0  0  0  0
 13 29  1  0  0  0  0
 14 30  1  0  0  0  0
 15 16  2  0  0  0  0
 15 31  1  0  0  0  0
 16 17  1  0  0  0  0
 16 19  1  0  0  0  0
 17 18  1  0  0  0  0
 18 32  1  0  0  0  0
 18 33  1  0  0  0  0
 18 34  1  0  0  0  0
 19 35  1  0  0  0  0
M  END
