
 OpenBabel10012510323D

 34 35  0  0  0  0  0  0  0  0999 V2000
    1.0431   -0.0853    0.0295 C   0  0  0  0  0  0  0  0  0  0  0  0
    0.5697    1.2530    0.0666 O   0  0  0  0  0  0  0  0  0  0  0  0
   -0.7584    1.4998    0.1312 C   0  0  0  0  0  0  0  0  0  0  0  0
   -1.1582    2.8145    0.1652 C   0  0  0  0  0  0  0  0  0  0  0  0
   -2.5030    3.1279    0.2045 C   0  0  0  0  0  0  0  0  0  0  0  0
   -3.4467    2.1297    0.2287 C   0  0  0  0  0  0  0  0  0  0  0  0
   -4.9244    2.4843    0.2595 C   0  0  0  0  0  0  0  0  0  0  0  0
   -5.2856    3.7028    0.2629 O   0  0  0  0  0  0  0  0  0  0  0  0
   -5.9702    1.3816    0.2864 C   0  0  0  0  0  0  0  0  0  0  0  0
   -5.5836    0.0773    0.2828 C   0  0  0  0  0  0  0  0  0  0  0  0
   -6.6293   -1.0255    0.3097 C   0  0  0  0  0  0  0  0  0  0  0  0
   -7.7328   -0.9458   -0.5112 C   0  0  0  0  0  0  0  0  0  0  0  0
   -8.7035   -1.9529   -0.5143 C   0  0  0  0  0  0  0  0  0  0  0  0
   -8.5010   -3.0576    0.3387 C   0  0  0  0  0  0  0  0  0  0  0  0
   -9.3744   -4.0891    0.3849 O   0  0  0  0  0  0  0  0  0  0  0  0
   -7.4112   -3.1113    1.1745 C   0  0  0  0  0  0  0  0  0  0  0  0
   -6.4714   -2.0991    1.1522 C   0  0  0  0  0  0  0  0  0  0  0  0
   -3.0573    0.8083    0.2252 C   0  0  0  0  0  0  0  0  0  0  0  0
   -4.0448   -0.2114    0.2623 O   0  0  0  0  0  0  0  0  0  0  0  0
   -1.7043    0.4554    0.1855 C   0  0  0  0  0  0  0  0  0  0  0  0
    0.6864   -0.5653   -0.8578 H   0  0  0  0  0  0  0  0  0  0  0  0
    0.6864   -0.6137    0.8888 H   0  0  0  0  0  0  0  0  0  0  0  0
    2.1131   -0.0853    0.0295 H   0  0  0  0  0  0  0  0  0  0  0  0
   -0.4271    3.5958    0.1612 H   0  0  0  0  0  0  0  0  0  0  0  0
   -2.8110    4.1526    0.2161 H   0  0  0  0  0  0  0  0  0  0  0  0
   -7.0104    1.6312    0.3081 H   0  0  0  0  0  0  0  0  0  0  0  0
   -4.5433   -0.1723    0.2611 H   0  0  0  0  0  0  0  0  0  0  0  0
   -7.8491   -0.1003   -1.1566 H   0  0  0  0  0  0  0  0  0  0  0  0
   -9.5683   -1.8875   -1.1410 H   0  0  0  0  0  0  0  0  0  0  0  0
  -10.1803   -4.0887   -0.2071 H   0  0  0  0  0  0  0  0  0  0  0  0
   -7.2907   -3.9380    1.8432 H   0  0  0  0  0  0  0  0  0  0  0  0
   -5.6167   -2.1515    1.7938 H   0  0  0  0  0  0  0  0  0  0  0  0
   -3.7707   -1.1731    0.2600 H   0  0  0  0  0  0  0  0  0  0  0  0
   -1.3982   -0.5699    0.1961 H   0  0  0  0  0  0  0  0  0  0  0  0
  1  2  1  0  0  0  0
  1 21  1  0  0  0  0
  1 22  1  0  0  0  0
  1 23  1  0  0  0  0
  2  3  1  0  0  0  0
  3  4  1  0  0  0  0
  3 20  2  0  0  0  0
  4  5  2  0  0  0  0
  4 24  1  0  0  0  0
  5  6  1  0  0  0  0
  5 25  1  0  0  0  0
  6  7  1  0  0  0  0
  6 18  2  0  0  0  0
  7  8  2  0  0  0  0
  7  9  1  0  0  0  0
  9 10  2  0  0  0  0
  9 26  1  0  0  0  0
 10 11  1  0  0  0  0
 10 27  1  0  0  0  0
 11 12  1  0  0  0  0
 11 17  2  0  0  0  0
 12 13  2  0  0  0  0
 12 28  1  0  0  0  0
 13 14  1  0  0  0  0
 13 29  1  0  0  0  0
 14 15  1  0  0  0  0
 14 16  2  0  0  0  0
 15 30  1  0  0  0  0
 16 17  1  0  0  0  0
 16 31  1  0  0  0  0
 17 32  1  0  0  0  0
 18 19  1  0  0  0  0
 18 20  1  0  0  0  0
 19 33  1  0  0  0  0
 20 34  1  0  0  0  0
M  END
