
 OpenBabel10012510323D

 37 38  0  0  0  0  0  0  0  0999 V2000
    0.9771    0.0106    0.0968 C   0  0  0  0  0  0  0  0  0  0  0  0
    0.5037   -0.9271   -0.8588 O   0  0  0  0  0  0  0  0  0  0  0  0
    0.8468   -0.7794   -2.2288 C   0  0  0  0  0  0  0  0  0  0  0  0
   -0.1365   -0.9084   -3.1958 C   0  0  0  0  0  0  0  0  0  0  0  0
    0.3660   -1.0052   -4.5150 C   0  0  0  0  0  0  0  0  0  0  0  0
    1.5854   -0.6530   -4.8797 C   0  0  0  0  0  0  0  0  0  0  0  0
    1.9593   -0.4565   -6.3398 C   0  0  0  0  0  0  0  0  0  0  0  0
    1.0263   -0.6440   -7.3120 C   0  0  0  0  0  0  0  0  0  0  0  0
    1.4002   -0.4476   -8.7722 C   0  0  0  0  0  0  0  0  0  0  0  0
    0.5286   -0.6227   -9.6804 O   0  0  0  0  0  0  0  0  0  0  0  0
    2.8165   -0.0417   -9.1461 C   0  0  0  0  0  0  0  0  0  0  0  0
    3.0164    0.9608  -10.0808 C   0  0  0  0  0  0  0  0  0  0  0  0
    4.3477    1.0479  -10.5521 C   0  0  0  0  0  0  0  0  0  0  0  0
    5.3930    0.5146   -9.9465 C   0  0  0  0  0  0  0  0  0  0  0  0
    6.7217    0.8916  -10.2764 O   0  0  0  0  0  0  0  0  0  0  0  0
    7.8180    0.2934   -9.6006 C   0  0  0  0  0  0  0  0  0  0  0  0
    5.1272   -0.4202   -8.9847 C   0  0  0  0  0  0  0  0  0  0  0  0
    3.8404   -0.6550   -8.5640 C   0  0  0  0  0  0  0  0  0  0  0  0
    3.6033   -1.5617   -7.4972 O   0  0  0  0  0  0  0  0  0  0  0  0
    2.4934   -0.4745   -3.8732 C   0  0  0  0  0  0  0  0  0  0  0  0
    2.1020   -0.4960   -2.5563 C   0  0  0  0  0  0  0  0  0  0  0  0
    0.6204   -0.2597    1.0687 H   0  0  0  0  0  0  0  0  0  0  0  0
    0.6204    0.9874   -0.1552 H   0  0  0  0  0  0  0  0  0  0  0  0
    2.0471    0.0106    0.0968 H   0  0  0  0  0  0  0  0  0  0  0  0
   -1.1813   -0.9325   -2.9661 H   0  0  0  0  0  0  0  0  0  0  0  0
   -0.2875   -1.3907   -5.2695 H   0  0  0  0  0  0  0  0  0  0  0  0
    2.9562   -0.1708   -6.6030 H   0  0  0  0  0  0  0  0  0  0  0  0
    0.0293   -0.9297   -7.0488 H   0  0  0  0  0  0  0  0  0  0  0  0
    2.2350    1.6103  -10.4160 H   0  0  0  0  0  0  0  0  0  0  0  0
    4.5194    1.5830  -11.4626 H   0  0  0  0  0  0  0  0  0  0  0  0
    7.7445    0.4960   -8.5526 H   0  0  0  0  0  0  0  0  0  0  0  0
    7.8020   -0.7643   -9.7615 H   0  0  0  0  0  0  0  0  0  0  0  0
    8.7337    0.6978   -9.9787 H   0  0  0  0  0  0  0  0  0  0  0  0
    5.9328   -0.9768   -8.5533 H   0  0  0  0  0  0  0  0  0  0  0  0
    2.6686   -1.7359   -7.1875 H   0  0  0  0  0  0  0  0  0  0  0  0
    3.5237   -0.3157   -4.1146 H   0  0  0  0  0  0  0  0  0  0  0  0
    2.8152   -0.2826   -1.7877 H   0  0  0  0  0  0  0  0  0  0  0  0
  1  2  1  0  0  0  0
  1 22  1  0  0  0  0
  1 23  1  0  0  0  0
  1 24  1  0  0  0  0
  2  3  1  0  0  0  0
  3  4  1  0  0  0  0
  3 21  2  0  0  0  0
  4  5  2  0  0  0  0
  4 25  1  0  0  0  0
  5  6  1  0  0  0  0
  5 26  1  0  0  0  0
  6  7  1  0  0  0  0
  6 20  2  0  0  0  0
  7  8  2  0  0  0  0
  7 27  1  0  0  0  0
  8  9  1  0  0  0  0
  8 28  1  0  0  0  0
  9 10  2  0  0  0  0
  9 11  1  0  0  0  0
 11 12  1  0  0  0  0
 11 18  2  0  0  0  0
 12 13  2  0  0  0  0
 12 29  1  0  0  0  0
 13 14  1  0  0  0  0
 13 30  1  0  0  0  0
 14 15  1  0  0  0  0
 14 17  2  0  0  0  0
 15 16  1  0  0  0  0
 16 31  1  0  0  0  0
 16 32  1  0  0  0  0
 16 33  1  0  0  0  0
 17 18  1  0  0  0  0
 17 34  1  0  0  0  0
 18 19  1  0  0  0  0
 19 35  1  0  0  0  0
 20 21  1  0  0  0  0
 20 36  1  0  0  0  0
 21 37  1  0  0  0  0
M  END
