
 OpenBabel10012510323D

 31 32  0  0  0  0  0  0  0  0999 V2000
    0.9275    0.0410    0.0554 C   0  0  0  0  0  0  0  0  0  0  0  0
    0.4542    0.2712    1.3742 O   0  0  0  0  0  0  0  0  0  0  0  0
    0.0705   -0.7667    2.1517 C   0  0  0  0  0  0  0  0  0  0  0  0
   -0.3374   -0.4823    3.4331 C   0  0  0  0  0  0  0  0  0  0  0  0
   -0.7657   -1.4990    4.2646 C   0  0  0  0  0  0  0  0  0  0  0  0
   -1.2046   -1.1980    5.5811 O   0  0  0  0  0  0  0  0  0  0  0  0
   -0.7689   -2.8000    3.8233 C   0  0  0  0  0  0  0  0  0  0  0  0
   -0.3341   -3.1009    2.5512 C   0  0  0  0  0  0  0  0  0  0  0  0
   -0.3325   -4.5472    2.0836 C   0  0  0  0  0  0  0  0  0  0  0  0
   -0.7583   -5.5326    2.9193 C   0  0  0  0  0  0  0  0  0  0  0  0
   -0.7568   -6.9789    2.4517 C   0  0  0  0  0  0  0  0  0  0  0  0
   -1.8610   -7.7755    2.7058 C   0  0  0  0  0  0  0  0  0  0  0  0
   -1.6337   -9.1557    2.4923 C   0  0  0  0  0  0  0  0  0  0  0  0
   -0.6323   -9.6494    1.7869 C   0  0  0  0  0  0  0  0  0  0  0  0
    0.3971   -8.7931    1.5104 C   0  0  0  0  0  0  0  0  0  0  0  0
    0.3024   -7.4550    1.8077 C   0  0  0  0  0  0  0  0  0  0  0  0
    0.1060   -2.0962    1.6831 C   0  0  0  0  0  0  0  0  0  0  0  0
    0.5708    0.8148   -0.5918 H   0  0  0  0  0  0  0  0  0  0  0  0
    0.5709   -0.9064   -0.2912 H   0  0  0  0  0  0  0  0  0  0  0  0
    1.9975    0.0410    0.0554 H   0  0  0  0  0  0  0  0  0  0  0  0
   -0.3232    0.5274    3.7870 H   0  0  0  0  0  0  0  0  0  0  0  0
   -1.5151   -1.9323    6.1848 H   0  0  0  0  0  0  0  0  0  0  0  0
   -1.1100   -3.5818    4.4694 H   0  0  0  0  0  0  0  0  0  0  0  0
    0.0034   -4.7902    1.0972 H   0  0  0  0  0  0  0  0  0  0  0  0
   -1.0943   -5.2896    3.9056 H   0  0  0  0  0  0  0  0  0  0  0  0
   -2.8008   -7.3828    3.0339 H   0  0  0  0  0  0  0  0  0  0  0  0
   -2.3209   -9.8474    2.9329 H   0  0  0  0  0  0  0  0  0  0  0  0
   -0.6269  -10.6649    1.4500 H   0  0  0  0  0  0  0  0  0  0  0  0
    1.2893   -9.1705    1.0560 H   0  0  0  0  0  0  0  0  0  0  0  0
    1.0893   -6.7905    1.5176 H   0  0  0  0  0  0  0  0  0  0  0  0
    0.4567   -2.3281    0.6991 H   0  0  0  0  0  0  0  0  0  0  0  0
  1  2  1  0  0  0  0
  1 18  1  0  0  0  0
  1 19  1  0  0  0  0
  1 20  1  0  0  0  0
  2  3  1  0  0  0  0
  3  4  1  0  0  0  0
  3 17  2  0  0  0  0
  4  5  2  0  0  0  0
  4 21  1  0  0  0  0
  5  6  1  0  0  0  0
  5  7  1  0  0  0  0
  6 22  1  0  0  0  0
  7  8  2  0  0  0  0
  7 23  1  0  0  0  0
  8  9  1  0  0  0  0
  8 17  1  0  0  0  0
  9 10  2  0  0  0  0
  9 24  1  0  0  0  0
 10 11  1  0  0  0  0
 10 25  1  0  0  0  0
 11 12  1  0  0  0  0
 11 16  2  0  0  0  0
 12 13  2  0  0  0  0
 12 26  1  0  0  0  0
 13 14  1  0  0  0  0
 13 27  1  0  0  0  0
 14 15  2  0  0  0  0
 14 28  1  0  0  0  0
 15 16  1  0  0  0  0
 15 29  1  0  0  0  0
 16 30  1  0  0  0  0
 17 31  1  0  0  0  0
M  END
