
 OpenBabel10012510323D

 32 33  0  0  0  0  0  0  0  0999 V2000
    0.9718    0.0837    0.0469 C   0  0  0  0  0  0  0  0  0  0  0  0
    0.4984    0.6167   -1.1812 O   0  0  0  0  0  0  0  0  0  0  0  0
    0.8415    1.9418   -1.5592 C   0  0  0  0  0  0  0  0  0  0  0  0
   -0.0947    2.8436   -2.0376 C   0  0  0  0  0  0  0  0  0  0  0  0
    0.4701    4.0162   -2.5924 C   0  0  0  0  0  0  0  0  0  0  0  0
    1.7072    4.4256   -2.3777 C   0  0  0  0  0  0  0  0  0  0  0  0
    2.1517    5.8405   -2.7106 C   0  0  0  0  0  0  0  0  0  0  0  0
    1.2657    6.7239   -3.2449 C   0  0  0  0  0  0  0  0  0  0  0  0
   -0.1687    6.2960   -3.5089 C   0  0  0  0  0  0  0  0  0  0  0  0
   -0.8035    6.5893   -4.7046 C   0  0  0  0  0  0  0  0  0  0  0  0
   -2.2002    6.3638   -4.6825 C   0  0  0  0  0  0  0  0  0  0  0  0
   -2.9849    6.9801   -5.6929 O   0  0  0  0  0  0  0  0  0  0  0  0
   -2.8247    5.6202   -3.7875 C   0  0  0  0  0  0  0  0  0  0  0  0
   -2.1200    5.3074   -2.6583 C   0  0  0  0  0  0  0  0  0  0  0  0
   -2.7781    4.6590   -1.5799 O   0  0  0  0  0  0  0  0  0  0  0  0
   -0.7843    5.6114   -2.5520 C   0  0  0  0  0  0  0  0  0  0  0  0
    2.5666    3.5082   -1.8399 C   0  0  0  0  0  0  0  0  0  0  0  0
    2.1123    2.2902   -1.3951 C   0  0  0  0  0  0  0  0  0  0  0  0
    0.6151   -0.9186    0.1618 H   0  0  0  0  0  0  0  0  0  0  0  0
    0.6151    0.6843    0.8575 H   0  0  0  0  0  0  0  0  0  0  0  0
    2.0418    0.0837    0.0469 H   0  0  0  0  0  0  0  0  0  0  0  0
   -1.1494    2.6692   -1.9918 H   0  0  0  0  0  0  0  0  0  0  0  0
   -0.1480    4.6128   -3.2303 H   0  0  0  0  0  0  0  0  0  0  0  0
    3.1615    6.1418   -2.5247 H   0  0  0  0  0  0  0  0  0  0  0  0
    1.5787    7.7199   -3.4792 H   0  0  0  0  0  0  0  0  0  0  0  0
   -0.2847    6.9534   -5.5667 H   0  0  0  0  0  0  0  0  0  0  0  0
   -3.9754    6.8436   -5.7095 H   0  0  0  0  0  0  0  0  0  0  0  0
   -3.8282    5.2807   -3.9380 H   0  0  0  0  0  0  0  0  0  0  0  0
   -2.2696    4.4270   -0.7507 H   0  0  0  0  0  0  0  0  0  0  0  0
   -0.2352    5.2937   -1.6904 H   0  0  0  0  0  0  0  0  0  0  0  0
    3.6080    3.7422   -1.7643 H   0  0  0  0  0  0  0  0  0  0  0  0
    2.7886    1.6163   -0.9121 H   0  0  0  0  0  0  0  0  0  0  0  0
  1  2  1  0  0  0  0
  1 19  1  0  0  0  0
  1 20  1  0  0  0  0
  1 21  1  0  0  0  0
  2  3  1  0  0  0  0
  3  4  1  0  0  0  0
  3 18  2  0  0  0  0
  4  5  2  0  0  0  0
  4 22  1  0  0  0  0
  5  6  1  0  0  0  0
  5 23  1  0  0  0  0
  6  7  1  0  0  0  0
  6 17  2  0  0  0  0
  7  8  2  0  0  0  0
  7 24  1  0  0  0  0
  8  9  1  0  0  0  0
  8 25  1  0  0  0  0
  9 10  1  0  0  0  0
  9 16  2  0  0  0  0
 10 11  2  0  0  0  0
 10 26  1  0  0  0  0
 11 12  1  0  0  0  0
 11 13  1  0  0  0  0
 12 27  1  0  0  0  0
 13 14  2  0  0  0  0
 13 28  1  0  0  0  0
 14 15  1  0  0  0  0
 14 16  1  0  0  0  0
 15 29  1  0  0  0  0
 16 30  1  0  0  0  0
 17 18  1  0  0  0  0
 17 31  1  0  0  0  0
 18 32  1  0  0  0  0
M  END
