
 OpenBabel10012510323D

 35 37  0  0  0  0  0  0  0  0999 V2000
    1.0285   -0.0879   -0.0383 C   0  0  0  0  0  0  0  0  0  0  0  0
    0.5552    0.3901    1.2122 O   0  0  0  0  0  0  0  0  0  0  0  0
    0.8982   -0.2925    2.4092 C   0  0  0  0  0  0  0  0  0  0  0  0
   -0.0441   -0.3961    3.4191 C   0  0  0  0  0  0  0  0  0  0  0  0
    0.5091   -0.6599    4.6944 C   0  0  0  0  0  0  0  0  0  0  0  0
    1.7276   -1.1255    4.9006 C   0  0  0  0  0  0  0  0  0  0  0  0
    2.1470   -1.7059    6.2413 C   0  0  0  0  0  0  0  0  0  0  0  0
    3.4863   -2.2031    6.4235 C   0  0  0  0  0  0  0  0  0  0  0  0
    4.4283   -2.1503    5.3354 C   0  0  0  0  0  0  0  0  0  0  0  0
    5.6102   -2.5891    5.4961 O   0  0  0  0  0  0  0  0  0  0  0  0
    4.0089   -1.5700    3.9946 C   0  0  0  0  0  0  0  0  0  0  0  0
    4.2637   -2.3405    2.8721 C   0  0  0  0  0  0  0  0  0  0  0  0
    3.9972   -1.6790    1.6501 C   0  0  0  0  0  0  0  0  0  0  0  0
    3.2500   -0.5965    1.5318 C   0  0  0  0  0  0  0  0  0  0  0  0
    2.9768    0.0830    2.6864 C   0  0  0  0  0  0  0  0  0  0  0  0
    3.3221   -0.4366    3.9107 C   0  0  0  0  0  0  0  0  0  0  0  0
    1.2670   -1.7551    7.2579 O   0  0  0  0  0  0  0  0  0  0  0  0
    2.5916   -1.0575    3.8430 C   0  0  0  0  0  0  0  0  0  0  0  0
    2.1536   -0.6829    2.5957 C   0  0  0  0  0  0  0  0  0  0  0  0
    3.0517   -0.7134    1.4962 O   0  0  0  0  0  0  0  0  0  0  0  0
    2.6059   -0.3275    0.2044 C   0  0  0  0  0  0  0  0  0  0  0  0
    0.6719    0.5481   -0.8214 H   0  0  0  0  0  0  0  0  0  0  0  0
    0.6719   -1.0840   -0.1976 H   0  0  0  0  0  0  0  0  0  0  0  0
    2.0985   -0.0879   -0.0383 H   0  0  0  0  0  0  0  0  0  0  0  0
   -1.0949   -0.2866    3.2502 H   0  0  0  0  0  0  0  0  0  0  0  0
   -0.1023   -0.4687    5.5515 H   0  0  0  0  0  0  0  0  0  0  0  0
    3.7816   -2.6116    7.3674 H   0  0  0  0  0  0  0  0  0  0  0  0
    4.6288   -3.3449    2.9244 H   0  0  0  0  0  0  0  0  0  0  0  0
    4.4312   -2.0839    0.7598 H   0  0  0  0  0  0  0  0  0  0  0  0
    2.8784   -0.2688    0.5834 H   0  0  0  0  0  0  0  0  0  0  0  0
    2.4871    1.0330    2.6359 H   0  0  0  0  0  0  0  0  0  0  0  0
    3.6236   -1.2995    3.9889 H   0  0  0  0  0  0  0  0  0  0  0  0
    1.8021   -0.9646   -0.1005 H   0  0  0  0  0  0  0  0  0  0  0  0
    2.2661    0.6867    0.2326 H   0  0  0  0  0  0  0  0  0  0  0  0
    3.4135   -0.4139   -0.4922 H   0  0  0  0  0  0  0  0  0  0  0  0
  1  2  1  0  0  0  0
  1 22  1  0  0  0  0
  1 23  1  0  0  0  0
  1 24  1  0  0  0  0
  2  3  1  0  0  0  0
  3  4  1  0  0  0  0
  3 19  2  0  0  0  0
  4  5  2  0  0  0  0
  4 25  1  0  0  0  0
  5  6  1  0  0  0  0
  5 26  1  0  0  0  0
  6  7  1  0  0  0  0
  6 18  2  0  0  0  0
  7  8  2  0  0  0  0
  7 17  1  0  0  0  0
  8  9  1  0  0  0  0
  8 27  1  0  0  0  0
  9 10  2  0  0  0  0
  9 11  1  0  0  0  0
 11 12  1  0  0  0  0
 11 16  2  0  0  0  0
 12 13  2  0  0  0  0
 12 28  1  0  0  0  0
 13 14  1  0  0  0  0
 13 29  1  0  0  0  0
 14 15  2  0  0  0  0
 14 30  1  0  0  0  0
 15 16  1  0  0  0  0
 15 31  1  0  0  0  0
 16 17  1  0  0  0  0
 18 19  1  0  0  0  0
 18 32  1  0  0  0  0
 19 20  1  0  0  0  0
 20 21  1  0  0  0  0
 21 33  1  0  0  0  0
 21 34  1  0  0  0  0
 21 35  1  0  0  0  0
M  END
