
 OpenBabel10012510323D

 40 41  0  0  0  0  0  0  0  0999 V2000
    1.0546   -0.0508    0.0666 C   0  0  0  0  0  0  0  0  0  0  0  0
    0.5813    0.6977   -1.0434 O   0  0  0  0  0  0  0  0  0  0  0  0
    0.9243    2.0695   -1.1730 C   0  0  0  0  0  0  0  0  0  0  0  0
   -0.0616    2.9792   -1.5178 C   0  0  0  0  0  0  0  0  0  0  0  0
    0.4367    4.2465   -1.9020 C   0  0  0  0  0  0  0  0  0  0  0  0
    1.6527    4.6860   -1.6334 C   0  0  0  0  0  0  0  0  0  0  0  0
    2.0202    6.1552   -1.7635 C   0  0  0  0  0  0  0  0  0  0  0  0
    1.1464    6.9979   -2.1397 O   0  0  0  0  0  0  0  0  0  0  0  0
    3.4327    6.6165   -1.4436 C   0  0  0  0  0  0  0  0  0  0  0  0
    4.3681    5.7144   -1.0409 C   0  0  0  0  0  0  0  0  0  0  0  0
    5.7806    6.1757   -0.7210 C   0  0  0  0  0  0  0  0  0  0  0  0
    6.8607    5.4515   -1.1979 C   0  0  0  0  0  0  0  0  0  0  0  0
    8.0940    5.7991   -0.5976 C   0  0  0  0  0  0  0  0  0  0  0  0
    8.3129    6.9169    0.0706 C   0  0  0  0  0  0  0  0  0  0  0  0
    7.2065    7.6225    0.4546 C   0  0  0  0  0  0  0  0  0  0  0  0
    5.9541    7.2670    0.0154 C   0  0  0  0  0  0  0  0  0  0  0  0
    2.5633    3.7485   -1.2319 C   0  0  0  0  0  0  0  0  0  0  0  0
    3.9281    4.1140   -1.0907 O   0  0  0  0  0  0  0  0  0  0  0  0
    4.8824    3.1484   -0.6743 C   0  0  0  0  0  0  0  0  0  0  0  0
    2.1767    2.4576   -0.9631 C   0  0  0  0  0  0  0  0  0  0  0  0
    3.1251    1.5303   -0.4562 O   0  0  0  0  0  0  0  0  0  0  0  0
    2.7325    0.1947   -0.1762 C   0  0  0  0  0  0  0  0  0  0  0  0
    0.6979   -1.0571   -0.0036 H   0  0  0  0  0  0  0  0  0  0  0  0
    0.6979    0.3916    0.9733 H   0  0  0  0  0  0  0  0  0  0  0  0
    2.1246   -0.0508    0.0666 H   0  0  0  0  0  0  0  0  0  0  0  0
   -1.1054    2.7449   -1.4956 H   0  0  0  0  0  0  0  0  0  0  0  0
   -0.2172    4.8938   -2.4482 H   0  0  0  0  0  0  0  0  0  0  0  0
    3.6915    7.6507   -1.5352 H   0  0  0  0  0  0  0  0  0  0  0  0
    4.1093    4.6802   -0.9493 H   0  0  0  0  0  0  0  0  0  0  0  0
    6.7707    4.6975   -1.9518 H   0  0  0  0  0  0  0  0  0  0  0  0
    8.9056    5.1082   -0.6917 H   0  0  0  0  0  0  0  0  0  0  0  0
    9.3029    7.2523    0.2993 H   0  0  0  0  0  0  0  0  0  0  0  0
    7.3176    8.4637    1.1065 H   0  0  0  0  0  0  0  0  0  0  0  0
    5.1109    7.8749    0.2691 H   0  0  0  0  0  0  0  0  0  0  0  0
    4.6136    2.7747    0.2916 H   0  0  0  0  0  0  0  0  0  0  0  0
    4.9023    2.3410   -1.3762 H   0  0  0  0  0  0  0  0  0  0  0  0
    5.8503    3.6018   -0.6247 H   0  0  0  0  0  0  0  0  0  0  0  0
    1.9556    0.1981    0.5595 H   0  0  0  0  0  0  0  0  0  0  0  0
    2.3732   -0.2668   -1.0722 H   0  0  0  0  0  0  0  0  0  0  0  0
    3.5730   -0.3537    0.1951 H   0  0  0  0  0  0  0  0  0  0  0  0
  1  2  1  0  0  0  0
  1 23  1  0  0  0  0
  1 24  1  0  0  0  0
  1 25  1  0  0  0  0
  2  3  1  0  0  0  0
  3  4  1  0  0  0  0
  3 20  2  0  0  0  0
  4  5  2  0  0  0  0
  4 26  1  0  0  0  0
  5  6  1  0  0  0  0
  5 27  1  0  0  0  0
  6  7  1  0  0  0  0
  6 17  2  0  0  0  0
  7  8  2  0  0  0  0
  7  9  1  0  0  0  0
  9 10  2  0  0  0  0
  9 28  1  0  0  0  0
 10 11  1  0  0  0  0
 10 29  1  0  0  0  0
 11 12  1  0  0  0  0
 11 16  2  0  0  0  0
 12 13  2  0  0  0  0
 12 30  1  0  0  0  0
 13 14  1  0  0  0  0
 13 31  1  0  0  0  0
 14 15  2  0  0  0  0
 14 32  1  0  0  0  0
 15 16  1  0  0  0  0
 15 33  1  0  0  0  0
 16 34  1  0  0  0  0
 17 18  1  0  0  0  0
 17 20  1  0  0  0  0
 18 19  1  0  0  0  0
 19 35  1  0  0  0  0
 19 36  1  0  0  0  0
 19 37  1  0  0  0  0
 20 21  1  0  0  0  0
 21 22  1  0  0  0  0
 22 38  1  0  0  0  0
 22 39  1  0  0  0  0
 22 40  1  0  0  0  0
M  END
