
 OpenBabel10012510323D

 31 33  0  0  0  0  0  0  0  0999 V2000
    1.0567    0.0711   -0.0417 C   0  0  0  0  0  0  0  0  0  0  0  0
    0.5834   -1.2662    0.0225 O   0  0  0  0  0  0  0  0  0  0  0  0
    0.9264   -2.1906   -0.9993 C   0  0  0  0  0  0  0  0  0  0  0  0
   -0.1452   -2.8631   -1.5632 C   0  0  0  0  0  0  0  0  0  0  0  0
    0.2305   -3.8796   -2.4730 C   0  0  0  0  0  0  0  0  0  0  0  0
    1.4209   -3.9780   -3.0364 C   0  0  0  0  0  0  0  0  0  0  0  0
    1.6641   -4.8680   -4.2443 C   0  0  0  0  0  0  0  0  0  0  0  0
    2.9784   -4.9462   -4.8281 C   0  0  0  0  0  0  0  0  0  0  0  0
    4.0621   -4.1811   -4.2674 C   0  0  0  0  0  0  0  0  0  0  0  0
    5.2219   -4.2501   -4.7826 O   0  0  0  0  0  0  0  0  0  0  0  0
    3.8188   -3.2911   -3.0595 C   0  0  0  0  0  0  0  0  0  0  0  0
    4.4391   -2.0566   -2.9600 C   0  0  0  0  0  0  0  0  0  0  0  0
    4.4902   -1.5453   -1.6417 C   0  0  0  0  0  0  0  0  0  0  0  0
    3.7350   -1.9685   -0.6444 C   0  0  0  0  0  0  0  0  0  0  0  0
    3.0942   -3.1619   -0.8309 C   0  0  0  0  0  0  0  0  0  0  0  0
    3.1078   -3.7878   -2.0540 C   0  0  0  0  0  0  0  0  0  0  0  0
    0.6517   -5.5827   -4.7681 O   0  0  0  0  0  0  0  0  0  0  0  0
    2.4227   -3.2362   -2.4747 C   0  0  0  0  0  0  0  0  0  0  0  0
    2.1539   -2.3163   -1.4900 C   0  0  0  0  0  0  0  0  0  0  0  0
    0.7000    0.6168    0.8068 H   0  0  0  0  0  0  0  0  0  0  0  0
    0.7000    0.5330   -0.9385 H   0  0  0  0  0  0  0  0  0  0  0  0
    2.1267    0.0711   -0.0417 H   0  0  0  0  0  0  0  0  0  0  0  0
   -1.1646   -2.6347   -1.3318 H   0  0  0  0  0  0  0  0  0  0  0  0
   -0.5007   -4.6201   -2.7219 H   0  0  0  0  0  0  0  0  0  0  0  0
    3.1496   -5.5727   -5.6785 H   0  0  0  0  0  0  0  0  0  0  0  0
    4.8431   -1.5369   -3.8036 H   0  0  0  0  0  0  0  0  0  0  0  0
    5.1893   -0.7611   -1.4386 H   0  0  0  0  0  0  0  0  0  0  0  0
    3.6302   -1.4077    0.2608 H   0  0  0  0  0  0  0  0  0  0  0  0
    2.5746   -3.6149   -0.0125 H   0  0  0  0  0  0  0  0  0  0  0  0
    3.4305   -3.3739   -2.8066 H   0  0  0  0  0  0  0  0  0  0  0  0
    2.9408   -1.6957   -1.1152 H   0  0  0  0  0  0  0  0  0  0  0  0
  1  2  1  0  0  0  0
  1 20  1  0  0  0  0
  1 21  1  0  0  0  0
  1 22  1  0  0  0  0
  2  3  1  0  0  0  0
  3  4  1  0  0  0  0
  3 19  2  0  0  0  0
  4  5  2  0  0  0  0
  4 23  1  0  0  0  0
  5  6  1  0  0  0  0
  5 24  1  0  0  0  0
  6  7  1  0  0  0  0
  6 18  2  0  0  0  0
  7  8  2  0  0  0  0
  7 17  1  0  0  0  0
  8  9  1  0  0  0  0
  8 25  1  0  0  0  0
  9 10  2  0  0  0  0
  9 11  1  0  0  0  0
 11 12  1  0  0  0  0
 11 16  2  0  0  0  0
 12 13  2  0  0  0  0
 12 26  1  0  0  0  0
 13 14  1  0  0  0  0
 13 27  1  0  0  0  0
 14 15  2  0  0  0  0
 14 28  1  0  0  0  0
 15 16  1  0  0  0  0
 15 29  1  0  0  0  0
 16 17  1  0  0  0  0
 18 19  1  0  0  0  0
 18 30  1  0  0  0  0
 19 31  1  0  0  0  0
M  END
