
 OpenBabel10012510323D

 33 34  0  0  0  0  0  0  0  0999 V2000
    1.0381    0.0921    0.0083 C   0  0  0  0  0  0  0  0  0  0  0  0
    0.5648   -0.6374    1.1309 O   0  0  0  0  0  0  0  0  0  0  0  0
    0.8255   -1.9640    1.1613 C   0  0  0  0  0  0  0  0  0  0  0  0
    0.5142   -2.6454    2.3137 C   0  0  0  0  0  0  0  0  0  0  0  0
    0.7335   -4.0070    2.3932 C   0  0  0  0  0  0  0  0  0  0  0  0
    1.2803   -4.6839    1.3301 C   0  0  0  0  0  0  0  0  0  0  0  0
    1.5066   -6.1842    1.4223 C   0  0  0  0  0  0  0  0  0  0  0  0
    1.1901   -6.8106    2.4818 O   0  0  0  0  0  0  0  0  0  0  0  0
    2.1114   -6.9352    0.2474 C   0  0  0  0  0  0  0  0  0  0  0  0
    2.4502   -6.2646   -0.8868 C   0  0  0  0  0  0  0  0  0  0  0  0
    3.0551   -7.0156   -2.0618 C   0  0  0  0  0  0  0  0  0  0  0  0
    4.2322   -6.4925   -2.5709 C   0  0  0  0  0  0  0  0  0  0  0  0
    4.6780   -7.1286   -3.7535 C   0  0  0  0  0  0  0  0  0  0  0  0
    4.2697   -8.3151   -4.1653 C   0  0  0  0  0  0  0  0  0  0  0  0
    3.1390   -8.8077   -3.5750 C   0  0  0  0  0  0  0  0  0  0  0  0
    2.5698   -8.1721   -2.4980 C   0  0  0  0  0  0  0  0  0  0  0  0
    1.6241   -4.0068    0.1807 C   0  0  0  0  0  0  0  0  0  0  0  0
    2.1991   -4.7192   -0.9047 O   0  0  0  0  0  0  0  0  0  0  0  0
    1.4156   -2.6283    0.0662 C   0  0  0  0  0  0  0  0  0  0  0  0
    0.6814    1.0995    0.0614 H   0  0  0  0  0  0  0  0  0  0  0  0
    0.6814   -0.3657   -0.8907 H   0  0  0  0  0  0  0  0  0  0  0  0
    2.1081    0.0921    0.0083 H   0  0  0  0  0  0  0  0  0  0  0  0
    0.1016   -2.1207    3.1500 H   0  0  0  0  0  0  0  0  0  0  0  0
    0.4763   -4.5367    3.2867 H   0  0  0  0  0  0  0  0  0  0  0  0
    2.2707   -7.9913    0.3123 H   0  0  0  0  0  0  0  0  0  0  0  0
    2.2909   -5.2085   -0.9517 H   0  0  0  0  0  0  0  0  0  0  0  0
    4.7568   -5.6808   -2.1116 H   0  0  0  0  0  0  0  0  0  0  0  0
    5.3958   -6.6125   -4.3562 H   0  0  0  0  0  0  0  0  0  0  0  0
    4.7954   -8.8616   -4.9201 H   0  0  0  0  0  0  0  0  0  0  0  0
    2.6909   -9.7010   -3.9573 H   0  0  0  0  0  0  0  0  0  0  0  0
    1.7280   -8.6131   -2.0063 H   0  0  0  0  0  0  0  0  0  0  0  0
    2.4515   -4.2354   -1.7426 H   0  0  0  0  0  0  0  0  0  0  0  0
    1.6937   -2.0973   -0.8201 H   0  0  0  0  0  0  0  0  0  0  0  0
  1  2  1  0  0  0  0
  1 20  1  0  0  0  0
  1 21  1  0  0  0  0
  1 22  1  0  0  0  0
  2  3  1  0  0  0  0
  3  4  1  0  0  0  0
  3 19  2  0  0  0  0
  4  5  2  0  0  0  0
  4 23  1  0  0  0  0
  5  6  1  0  0  0  0
  5 24  1  0  0  0  0
  6  7  1  0  0  0  0
  6 17  2  0  0  0  0
  7  8  2  0  0  0  0
  7  9  1  0  0  0  0
  9 10  2  0  0  0  0
  9 25  1  0  0  0  0
 10 11  1  0  0  0  0
 10 26  1  0  0  0  0
 11 12  1  0  0  0  0
 11 16  2  0  0  0  0
 12 13  2  0  0  0  0
 12 27  1  0  0  0  0
 13 14  1  0  0  0  0
 13 28  1  0  0  0  0
 14 15  2  0  0  0  0
 14 29  1  0  0  0  0
 15 16  1  0  0  0  0
 15 30  1  0  0  0  0
 16 31  1  0  0  0  0
 17 18  1  0  0  0  0
 17 19  1  0  0  0  0
 18 32  1  0  0  0  0
 19 33  1  0  0  0  0
M  END
