
 OpenBabel10012510323D

 44 45  0  0  0  0  0  0  0  0999 V2000
    0.9434   -0.0137   -0.0813 O   0  0  0  0  0  0  0  0  0  0  0  0
    2.2143   -0.0137   -0.0813 C   0  0  0  0  0  0  0  0  0  0  0  0
    2.9743    1.2081    0.4087 C   0  0  0  0  0  0  0  0  0  0  0  0
    3.8482    0.8208    1.5906 C   0  0  0  0  0  0  0  0  0  0  0  0
    4.8359   -0.2514    1.1605 C   0  0  0  0  0  0  0  0  0  0  0  0
    5.7098    0.2853    0.0386 C   0  0  0  0  0  0  0  0  0  0  0  0
    6.4698    1.5070    0.5286 C   0  0  0  0  0  0  0  0  0  0  0  0
    7.6472    1.4195    1.2384 C   0  0  0  0  0  0  0  0  0  0  0  0
    8.2944    2.5681    1.7060 C   0  0  0  0  0  0  0  0  0  0  0  0
    7.7072    3.8152    1.4086 C   0  0  0  0  0  0  0  0  0  0  0  0
    8.2746    4.9790    1.7994 O   0  0  0  0  0  0  0  0  0  0  0  0
    6.5168    3.8881    0.7252 C   0  0  0  0  0  0  0  0  0  0  0  0
    5.9041    2.7336    0.2777 C   0  0  0  0  0  0  0  0  0  0  0  0
    2.9743   -1.2354   -0.5713 C   0  0  0  0  0  0  0  0  0  0  0  0
    2.6071   -2.4372    0.2839 C   0  0  0  0  0  0  0  0  0  0  0  0
    1.1127   -2.6950    0.1805 C   0  0  0  0  0  0  0  0  0  0  0  0
    0.2352   -1.6350    0.1157 C   0  0  0  0  0  0  0  0  0  0  0  0
   -1.1435   -1.8456    0.0085 C   0  0  0  0  0  0  0  0  0  0  0  0
   -1.5977   -3.1794   -0.0487 C   0  0  0  0  0  0  0  0  0  0  0  0
   -2.9105   -3.4781   -0.1761 O   0  0  0  0  0  0  0  0  0  0  0  0
   -0.7149   -4.2286    0.0467 C   0  0  0  0  0  0  0  0  0  0  0  0
    0.6408   -3.9849    0.1518 C   0  0  0  0  0  0  0  0  0  0  0  0
    3.5895    1.5859   -0.3811 H   0  0  0  0  0  0  0  0  0  0  0  0
    2.2790    1.9629    0.7114 H   0  0  0  0  0  0  0  0  0  0  0  0
    4.3832    1.6809    1.9355 H   0  0  0  0  0  0  0  0  0  0  0  0
    3.2330    0.4430    2.3803 H   0  0  0  0  0  0  0  0  0  0  0  0
    5.4511   -0.5240    1.9925 H   0  0  0  0  0  0  0  0  0  0  0  0
    4.3009   -1.1115    0.8156 H   0  0  0  0  0  0  0  0  0  0  0  0
    6.4051   -0.4696   -0.2641 H   0  0  0  0  0  0  0  0  0  0  0  0
    5.0946    0.5579   -0.7934 H   0  0  0  0  0  0  0  0  0  0  0  0
    8.0733    0.4580    1.4351 H   0  0  0  0  0  0  0  0  0  0  0  0
    9.2019    2.5027    2.2690 H   0  0  0  0  0  0  0  0  0  0  0  0
    9.1407    4.9699    2.2990 H   0  0  0  0  0  0  0  0  0  0  0  0
    6.0644    4.8398    0.5397 H   0  0  0  0  0  0  0  0  0  0  0  0
    4.9850    2.7950   -0.2667 H   0  0  0  0  0  0  0  0  0  0  0  0
    2.7158   -1.4310   -1.5910 H   0  0  0  0  0  0  0  0  0  0  0  0
    4.0263   -1.0540   -0.4985 H   0  0  0  0  0  0  0  0  0  0  0  0
    3.1421   -3.2972   -0.0611 H   0  0  0  0  0  0  0  0  0  0  0  0
    2.8656   -2.2416    1.3036 H   0  0  0  0  0  0  0  0  0  0  0  0
    0.6142   -0.6349    0.1478 H   0  0  0  0  0  0  0  0  0  0  0  0
   -1.8285   -1.0245   -0.0286 H   0  0  0  0  0  0  0  0  0  0  0  0
   -3.5856   -2.7439   -0.2485 H   0  0  0  0  0  0  0  0  0  0  0  0
   -1.0781   -5.2351    0.0396 H   0  0  0  0  0  0  0  0  0  0  0  0
    1.3263   -4.8044    0.2112 H   0  0  0  0  0  0  0  0  0  0  0  0
  1  2  2  0  0  0  0
  2  3  1  0  0  0  0
  2 14  1  0  0  0  0
  3  4  1  0  0  0  0
  3 23  1  0  0  0  0
  3 24  1  0  0  0  0
  4  5  1  0  0  0  0
  4 25  1  0  0  0  0
  4 26  1  0  0  0  0
  5  6  1  0  0  0  0
  5 27  1  0  0  0  0
  5 28  1  0  0  0  0
  6  7  1  0  0  0  0
  6 29  1  0  0  0  0
  6 30  1  0  0  0  0
  7  8  1  0  0  0  0
  7 13  2  0  0  0  0
  8  9  2  0  0  0  0
  8 31  1  0  0  0  0
  9 10  1  0  0  0  0
  9 32  1  0  0  0  0
 10 11  1  0  0  0  0
 10 12  2  0  0  0  0
 11 33  1  0  0  0  0
 12 13  1  0  0  0  0
 12 34  1  0  0  0  0
 13 35  1  0  0  0  0
 14 15  1  0  0  0  0
 14 36  1  0  0  0  0
 14 37  1  0  0  0  0
 15 16  1  0  0  0  0
 15 38  1  0  0  0  0
 15 39  1  0  0  0  0
 16 17  1  0  0  0  0
 16 22  2  0  0  0  0
 17 18  2  0  0  0  0
 17 40  1  0  0  0  0
 18 19  1  0  0  0  0
 18 41  1  0  0  0  0
 19 20  1  0  0  0  0
 19 21  2  0  0  0  0
 20 42  1  0  0  0  0
 21 22  1  0  0  0  0
 21 43  1  0  0  0  0
 22 44  1  0  0  0  0
M  END
