
 OpenBabel10012510323D

 35 37  0  0  0  0  0  0  0  0999 V2000
    0.9623   -0.0419    0.0826 C   0  0  0  0  0  0  0  0  0  0  0  0
    0.4889   -1.2537    0.6516 O   0  0  0  0  0  0  0  0  0  0  0  0
    0.8320   -2.4978    0.0592 C   0  0  0  0  0  0  0  0  0  0  0  0
   -0.2353   -3.3559   -0.1486 C   0  0  0  0  0  0  0  0  0  0  0  0
    0.1461   -4.6597   -0.5444 C   0  0  0  0  0  0  0  0  0  0  0  0
    1.3322   -4.9782   -1.0298 C   0  0  0  0  0  0  0  0  0  0  0  0
    1.5605   -6.2091   -1.7000 O   0  0  0  0  0  0  0  0  0  0  0  0
    2.8516   -6.5127   -2.2072 C   0  0  0  0  0  0  0  0  0  0  0  0
    2.3287   -4.0590   -0.8524 C   0  0  0  0  0  0  0  0  0  0  0  0
    3.7584   -4.4243   -1.2170 C   0  0  0  0  0  0  0  0  0  0  0  0
    4.8160   -3.4639   -1.0343 C   0  0  0  0  0  0  0  0  0  0  0  0
    4.5189   -2.1574   -0.5061 C   0  0  0  0  0  0  0  0  0  0  0  0
    5.4522   -1.3099   -0.3449 O   0  0  0  0  0  0  0  0  0  0  0  0
    3.0892   -1.7921   -0.1416 C   0  0  0  0  0  0  0  0  0  0  0  0
    2.5874   -0.5594   -0.5255 C   0  0  0  0  0  0  0  0  0  0  0  0
    1.3738   -0.2105    0.1128 C   0  0  0  0  0  0  0  0  0  0  0  0
    0.5780   -1.0664    0.7279 C   0  0  0  0  0  0  0  0  0  0  0  0
    1.1112   -2.2913    1.0189 C   0  0  0  0  0  0  0  0  0  0  0  0
    2.3467   -2.6559    0.5408 C   0  0  0  0  0  0  0  0  0  0  0  0
    4.0360   -5.6449   -1.7103 O   0  0  0  0  0  0  0  0  0  0  0  0
    2.0563   -2.8097   -0.3493 C   0  0  0  0  0  0  0  0  0  0  0  0
    0.6056    0.7860    0.6591 H   0  0  0  0  0  0  0  0  0  0  0  0
    0.6056    0.0434   -0.9226 H   0  0  0  0  0  0  0  0  0  0  0  0
    2.0323   -0.0419    0.0826 H   0  0  0  0  0  0  0  0  0  0  0  0
   -1.2556   -3.0597   -0.0214 H   0  0  0  0  0  0  0  0  0  0  0  0
   -0.5768   -5.4421   -0.4433 H   0  0  0  0  0  0  0  0  0  0  0  0
    3.1365   -5.7713   -2.9242 H   0  0  0  0  0  0  0  0  0  0  0  0
    3.5576   -6.5213   -1.4033 H   0  0  0  0  0  0  0  0  0  0  0  0
    2.8335   -7.4742   -2.6764 H   0  0  0  0  0  0  0  0  0  0  0  0
    5.8224   -3.7211   -1.2909 H   0  0  0  0  0  0  0  0  0  0  0  0
    3.0734    0.0716   -1.2400 H   0  0  0  0  0  0  0  0  0  0  0  0
    1.0803    0.8183    0.0960 H   0  0  0  0  0  0  0  0  0  0  0  0
   -0.4298   -0.8148    0.9847 H   0  0  0  0  0  0  0  0  0  0  0  0
    0.5585   -2.9758    1.6278 H   0  0  0  0  0  0  0  0  0  0  0  0
    2.8379   -2.0816   -0.2862 H   0  0  0  0  0  0  0  0  0  0  0  0
  1  2  1  0  0  0  0
  1 22  1  0  0  0  0
  1 23  1  0  0  0  0
  1 24  1  0  0  0  0
  2  3  1  0  0  0  0
  3  4  1  0  0  0  0
  3 21  2  0  0  0  0
  4  5  2  0  0  0  0
  4 25  1  0  0  0  0
  5  6  1  0  0  0  0
  5 26  1  0  0  0  0
  6  7  1  0  0  0  0
  6  9  2  0  0  0  0
  7  8  1  0  0  0  0
  8 27  1  0  0  0  0
  8 28  1  0  0  0  0
  8 29  1  0  0  0  0
  9 10  1  0  0  0  0
  9 21  1  0  0  0  0
 10 11  2  0  0  0  0
 10 20  1  0  0  0  0
 11 12  1  0  0  0  0
 11 30  1  0  0  0  0
 12 13  2  0  0  0  0
 12 14  1  0  0  0  0
 14 15  1  0  0  0  0
 14 19  2  0  0  0  0
 15 16  2  0  0  0  0
 15 31  1  0  0  0  0
 16 17  1  0  0  0  0
 16 32  1  0  0  0  0
 17 18  2  0  0  0  0
 17 33  1  0  0  0  0
 18 19  1  0  0  0  0
 18 34  1  0  0  0  0
 19 20  1  0  0  0  0
 21 35  1  0  0  0  0
M  END
