
 OpenBabel10012510323D

 34 35  0  0  0  0  0  0  0  0999 V2000
    1.0324    0.0935   -0.0147 C   0  0  0  0  0  0  0  0  0  0  0  0
    0.5590    0.8767    1.0710 O   0  0  0  0  0  0  0  0  0  0  0  0
    0.9021    0.5245    2.4032 C   0  0  0  0  0  0  0  0  0  0  0  0
   -0.0598    0.6211    3.3952 C   0  0  0  0  0  0  0  0  0  0  0  0
    0.4692    0.6317    4.7075 C   0  0  0  0  0  0  0  0  0  0  0  0
    1.6863    0.2315    5.0277 C   0  0  0  0  0  0  0  0  0  0  0  0
    2.0823   -0.0557    6.4668 C   0  0  0  0  0  0  0  0  0  0  0  0
    1.1723    0.0979    7.4663 C   0  0  0  0  0  0  0  0  0  0  0  0
    1.5683   -0.1892    8.9054 C   0  0  0  0  0  0  0  0  0  0  0  0
    0.7182   -0.0457    9.8391 O   0  0  0  0  0  0  0  0  0  0  0  0
    2.9811   -0.6480    9.2278 C   0  0  0  0  0  0  0  0  0  0  0  0
    3.1648   -1.7013   10.1084 C   0  0  0  0  0  0  0  0  0  0  0  0
    4.4983   -1.8459   10.5590 C   0  0  0  0  0  0  0  0  0  0  0  0
    5.5507   -1.3092    9.9687 C   0  0  0  0  0  0  0  0  0  0  0  0
    6.8725   -1.7361   10.2635 O   0  0  0  0  0  0  0  0  0  0  0  0
    5.2990   -0.3205    9.0584 C   0  0  0  0  0  0  0  0  0  0  0  0
    4.0144   -0.0322    8.6654 C   0  0  0  0  0  0  0  0  0  0  0  0
    3.7897    0.9332    7.6485 O   0  0  0  0  0  0  0  0  0  0  0  0
    2.5711    0.0893    3.9950 C   0  0  0  0  0  0  0  0  0  0  0  0
    2.1560    0.1943    2.6894 C   0  0  0  0  0  0  0  0  0  0  0  0
    0.6757    0.5069   -0.9349 H   0  0  0  0  0  0  0  0  0  0  0  0
    0.6757   -0.9102    0.0873 H   0  0  0  0  0  0  0  0  0  0  0  0
    2.1024    0.0935   -0.0147 H   0  0  0  0  0  0  0  0  0  0  0  0
   -1.1077    0.6823    3.1880 H   0  0  0  0  0  0  0  0  0  0  0  0
   -0.1607    0.9888    5.4953 H   0  0  0  0  0  0  0  0  0  0  0  0
    3.0769   -0.3786    6.6938 H   0  0  0  0  0  0  0  0  0  0  0  0
    0.1778    0.4209    7.2393 H   0  0  0  0  0  0  0  0  0  0  0  0
    2.3704   -2.3470   10.4197 H   0  0  0  0  0  0  0  0  0  0  0  0
    4.6656   -2.4307   11.4393 H   0  0  0  0  0  0  0  0  0  0  0  0
    7.6502   -1.3109    9.8004 H   0  0  0  0  0  0  0  0  0  0  0  0
    6.1142    0.2366    8.6462 H   0  0  0  0  0  0  0  0  0  0  0  0
    2.8566    1.1465    7.3590 H   0  0  0  0  0  0  0  0  0  0  0  0
    3.6015   -0.1065    4.2066 H   0  0  0  0  0  0  0  0  0  0  0  0
    2.8495    0.0083    1.8960 H   0  0  0  0  0  0  0  0  0  0  0  0
  1  2  1  0  0  0  0
  1 21  1  0  0  0  0
  1 22  1  0  0  0  0
  1 23  1  0  0  0  0
  2  3  1  0  0  0  0
  3  4  1  0  0  0  0
  3 20  2  0  0  0  0
  4  5  2  0  0  0  0
  4 24  1  0  0  0  0
  5  6  1  0  0  0  0
  5 25  1  0  0  0  0
  6  7  1  0  0  0  0
  6 19  2  0  0  0  0
  7  8  2  0  0  0  0
  7 26  1  0  0  0  0
  8  9  1  0  0  0  0
  8 27  1  0  0  0  0
  9 10  2  0  0  0  0
  9 11  1  0  0  0  0
 11 12  1  0  0  0  0
 11 17  2  0  0  0  0
 12 13  2  0  0  0  0
 12 28  1  0  0  0  0
 13 14  1  0  0  0  0
 13 29  1  0  0  0  0
 14 15  1  0  0  0  0
 14 16  2  0  0  0  0
 15 30  1  0  0  0  0
 16 17  1  0  0  0  0
 16 31  1  0  0  0  0
 17 18  1  0  0  0  0
 18 32  1  0  0  0  0
 19 20  1  0  0  0  0
 19 33  1  0  0  0  0
 20 34  1  0  0  0  0
M  END
