
 OpenBabel10012510323D

 45 46  0  0  0  0  0  0  0  0999 V2000
    1.0605   -0.0793    0.0071 C   0  0  0  0  0  0  0  0  0  0  0  0
    0.5872   -1.4050    0.1937 O   0  0  0  0  0  0  0  0  0  0  0  0
    1.4165   -2.4382   -0.0778 C   0  0  0  0  0  0  0  0  0  0  0  0
    0.9329   -3.7091    0.1226 C   0  0  0  0  0  0  0  0  0  0  0  0
    1.7254   -4.8040   -0.1630 C   0  0  0  0  0  0  0  0  0  0  0  0
    1.1787   -6.2076    0.0407 C   0  0  0  0  0  0  0  0  0  0  0  0
   -0.0885   -6.3835    0.5032 C   0  0  0  0  0  0  0  0  0  0  0  0
   -0.6352   -7.7871    0.7069 C   0  0  0  0  0  0  0  0  0  0  0  0
   -1.8191   -7.9514    1.1390 O   0  0  0  0  0  0  0  0  0  0  0  0
    0.2339   -8.9941    0.3937 C   0  0  0  0  0  0  0  0  0  0  0  0
    0.6327   -8.9646   -1.0728 C   0  0  0  0  0  0  0  0  0  0  0  0
    1.4112   -7.6912   -1.3605 C   0  0  0  0  0  0  0  0  0  0  0  0
    2.6602   -7.6545   -0.4950 C   0  0  0  0  0  0  0  0  0  0  0  0
    3.5294   -8.8615   -0.8082 C   0  0  0  0  0  0  0  0  0  0  0  0
    2.9334  -10.1117   -0.8320 C   0  0  0  0  0  0  0  0  0  0  0  0
    3.8545  -11.1856   -0.8457 C   0  0  0  0  0  0  0  0  0  0  0  0
    5.1301  -11.0742   -1.1691 C   0  0  0  0  0  0  0  0  0  0  0  0
    5.6426   -9.8069   -1.1944 C   0  0  0  0  0  0  0  0  0  0  0  0
    4.8250   -8.7112   -1.0574 C   0  0  0  0  0  0  0  0  0  0  0  0
    3.0055   -4.6298   -0.6303 C   0  0  0  0  0  0  0  0  0  0  0  0
    3.5116   -3.3607   -0.8068 C   0  0  0  0  0  0  0  0  0  0  0  0
    2.7367   -2.2301   -0.5277 C   0  0  0  0  0  0  0  0  0  0  0  0
    3.2604   -0.9204   -0.6915 O   0  0  0  0  0  0  0  0  0  0  0  0
    0.7039    0.5420    0.8019 H   0  0  0  0  0  0  0  0  0  0  0  0
    0.7039    0.2984   -0.9283 H   0  0  0  0  0  0  0  0  0  0  0  0
    2.1305   -0.0793    0.0071 H   0  0  0  0  0  0  0  0  0  0  0  0
   -0.0582   -3.8505    0.5001 H   0  0  0  0  0  0  0  0  0  0  0  0
    1.7905   -7.0573   -0.1798 H   0  0  0  0  0  0  0  0  0  0  0  0
   -0.7003   -5.5338    0.7237 H   0  0  0  0  0  0  0  0  0  0  0  0
    1.1131   -8.9683    1.0030 H   0  0  0  0  0  0  0  0  0  0  0  0
   -0.3142   -9.8905    0.5963 H   0  0  0  0  0  0  0  0  0  0  0  0
    1.2445   -9.8142   -1.2932 H   0  0  0  0  0  0  0  0  0  0  0  0
   -0.2466   -8.9904   -1.6820 H   0  0  0  0  0  0  0  0  0  0  0  0
    1.6919   -7.6704   -2.3929 H   0  0  0  0  0  0  0  0  0  0  0  0
    0.7994   -6.8415   -1.1401 H   0  0  0  0  0  0  0  0  0  0  0  0
    3.2083   -6.7581   -0.6976 H   0  0  0  0  0  0  0  0  0  0  0  0
    2.3795   -7.6753    0.5373 H   0  0  0  0  0  0  0  0  0  0  0  0
    1.8728  -10.2524   -0.8393 H   0  0  0  0  0  0  0  0  0  0  0  0
    3.4924  -12.1555   -0.5754 H   0  0  0  0  0  0  0  0  0  0  0  0
    5.7303  -11.9298   -1.3988 H   0  0  0  0  0  0  0  0  0  0  0  0
    6.6955   -9.6664   -1.3227 H   0  0  0  0  0  0  0  0  0  0  0  0
    5.2360   -7.7278   -1.1523 H   0  0  0  0  0  0  0  0  0  0  0  0
    3.6112   -5.4821   -0.8577 H   0  0  0  0  0  0  0  0  0  0  0  0
    4.5131   -3.2379   -1.1629 H   0  0  0  0  0  0  0  0  0  0  0  0
    2.6903   -0.1247   -0.4867 H   0  0  0  0  0  0  0  0  0  0  0  0
  1  2  1  0  0  0  0
  1 24  1  0  0  0  0
  1 25  1  0  0  0  0
  1 26  1  0  0  0  0
  2  3  1  0  0  0  0
  3  4  1  0  0  0  0
  3 22  2  0  0  0  0
  4  5  2  0  0  0  0
  4 27  1  0  0  0  0
  5  6  1  0  0  0  0
  5 20  1  0  0  0  0
  6  7  2  0  0  0  0
  6 28  1  0  0  0  0
  7  8  1  0  0  0  0
  7 29  1  0  0  0  0
  8  9  2  0  0  0  0
  8 10  1  0  0  0  0
 10 11  1  0  0  0  0
 10 30  1  0  0  0  0
 10 31  1  0  0  0  0
 11 12  1  0  0  0  0
 11 32  1  0  0  0  0
 11 33  1  0  0  0  0
 12 13  1  0  0  0  0
 12 34  1  0  0  0  0
 12 35  1  0  0  0  0
 13 14  1  0  0  0  0
 13 36  1  0  0  0  0
 13 37  1  0  0  0  0
 14 15  1  0  0  0  0
 14 19  2  0  0  0  0
 15 16  2  0  0  0  0
 15 38  1  0  0  0  0
 16 17  1  0  0  0  0
 16 39  1  0  0  0  0
 17 18  2  0  0  0  0
 17 40  1  0  0  0  0
 18 19  1  0  0  0  0
 18 41  1  0  0  0  0
 19 42  1  0  0  0  0
 20 21  2  0  0  0  0
 20 43  1  0  0  0  0
 21 22  1  0  0  0  0
 21 44  1  0  0  0  0
 22 23  1  0  0  0  0
 23 45  1  0  0  0  0
M  END
