
 OpenBabel10012510323D

 34 35  0  0  0  0  0  0  0  0999 V2000
    1.0144    0.0283   -0.0948 C   0  0  0  0  0  0  0  0  0  0  0  0
    0.5411    1.3614   -0.2189 O   0  0  0  0  0  0  0  0  0  0  0  0
   -0.7348    1.6055   -0.5950 C   0  0  0  0  0  0  0  0  0  0  0  0
   -1.1250    2.9193   -0.6991 C   0  0  0  0  0  0  0  0  0  0  0  0
   -2.4085    3.2300   -1.1048 C   0  0  0  0  0  0  0  0  0  0  0  0
   -2.8287    4.6846   -1.2384 C   0  0  0  0  0  0  0  0  0  0  0  0
   -1.9416    5.6773   -0.9586 C   0  0  0  0  0  0  0  0  0  0  0  0
   -2.3618    7.1320   -1.0922 C   0  0  0  0  0  0  0  0  0  0  0  0
   -1.5331    8.0594   -0.8309 O   0  0  0  0  0  0  0  0  0  0  0  0
   -3.7732    7.4774   -1.5383 C   0  0  0  0  0  0  0  0  0  0  0  0
   -4.8453    6.8089   -0.9893 C   0  0  0  0  0  0  0  0  0  0  0  0
   -6.1568    7.1169   -1.3657 C   0  0  0  0  0  0  0  0  0  0  0  0
   -6.3398    8.1465   -2.3118 C   0  0  0  0  0  0  0  0  0  0  0  0
   -7.5722    8.5281   -2.7172 O   0  0  0  0  0  0  0  0  0  0  0  0
   -5.2609    8.7858   -2.8744 C   0  0  0  0  0  0  0  0  0  0  0  0
   -3.9785    8.4567   -2.4798 C   0  0  0  0  0  0  0  0  0  0  0  0
   -3.3067    2.2298   -1.3880 C   0  0  0  0  0  0  0  0  0  0  0  0
   -2.9364    0.9092   -1.2586 C   0  0  0  0  0  0  0  0  0  0  0  0
   -1.6451    0.5591   -0.8504 C   0  0  0  0  0  0  0  0  0  0  0  0
   -1.2646   -0.8005   -0.6987 O   0  0  0  0  0  0  0  0  0  0  0  0
    0.6577   -0.5549   -0.9179 H   0  0  0  0  0  0  0  0  0  0  0  0
    0.6577   -0.3929    0.8218 H   0  0  0  0  0  0  0  0  0  0  0  0
    2.0844    0.0283   -0.0948 H   0  0  0  0  0  0  0  0  0  0  0  0
   -0.4340    3.7022   -0.4657 H   0  0  0  0  0  0  0  0  0  0  0  0
   -3.8222    4.9278   -1.5524 H   0  0  0  0  0  0  0  0  0  0  0  0
   -0.9480    5.4341   -0.6446 H   0  0  0  0  0  0  0  0  0  0  0  0
   -4.6720    6.0420   -0.2634 H   0  0  0  0  0  0  0  0  0  0  0  0
   -6.9908    6.5904   -0.9509 H   0  0  0  0  0  0  0  0  0  0  0  0
   -8.3837    8.0881   -2.3325 H   0  0  0  0  0  0  0  0  0  0  0  0
   -5.4144    9.5391   -3.6186 H   0  0  0  0  0  0  0  0  0  0  0  0
   -3.1416    8.9667   -2.9092 H   0  0  0  0  0  0  0  0  0  0  0  0
   -4.2967    2.4771   -1.7101 H   0  0  0  0  0  0  0  0  0  0  0  0
   -3.6476    0.1393   -1.4736 H   0  0  0  0  0  0  0  0  0  0  0  0
   -0.3365   -1.0303   -0.4059 H   0  0  0  0  0  0  0  0  0  0  0  0
  1  2  1  0  0  0  0
  1 21  1  0  0  0  0
  1 22  1  0  0  0  0
  1 23  1  0  0  0  0
  2  3  1  0  0  0  0
  3  4  1  0  0  0  0
  3 19  2  0  0  0  0
  4  5  2  0  0  0  0
  4 24  1  0  0  0  0
  5  6  1  0  0  0  0
  5 17  1  0  0  0  0
  6  7  2  0  0  0  0
  6 25  1  0  0  0  0
  7  8  1  0  0  0  0
  7 26  1  0  0  0  0
  8  9  2  0  0  0  0
  8 10  1  0  0  0  0
 10 11  1  0  0  0  0
 10 16  2  0  0  0  0
 11 12  2  0  0  0  0
 11 27  1  0  0  0  0
 12 13  1  0  0  0  0
 12 28  1  0  0  0  0
 13 14  1  0  0  0  0
 13 15  2  0  0  0  0
 14 29  1  0  0  0  0
 15 16  1  0  0  0  0
 15 30  1  0  0  0  0
 16 31  1  0  0  0  0
 17 18  2  0  0  0  0
 17 32  1  0  0  0  0
 18 19  1  0  0  0  0
 18 33  1  0  0  0  0
 19 20  1  0  0  0  0
 20 34  1  0  0  0  0
M  END
