
 OpenBabel09282512363D

 31 33  0  0  0  0  0  0  0  0999 V2000
    0.9155   -0.0509   -0.0165 C   0  0  0  0  0  0  0  0  0  0  0  0
    0.4422   -0.2601    1.3059 O   0  0  0  0  0  0  0  0  0  0  0  0
    0.7852   -1.4487    2.0031 C   0  0  0  0  0  0  0  0  0  0  0  0
   -0.1527   -2.2616    2.6032 C   0  0  0  0  0  0  0  0  0  0  0  0
    0.2289   -3.4849    3.1363 C   0  0  0  0  0  0  0  0  0  0  0  0
    1.5432   -3.9071    3.0797 C   0  0  0  0  0  0  0  0  0  0  0  0
    2.4672   -3.0679    2.4769 C   0  0  0  0  0  0  0  0  0  0  0  0
    2.1250   -1.8488    1.9282 C   0  0  0  0  0  0  0  0  0  0  0  0
    3.1511   -0.9872    1.2888 C   0  0  0  0  0  0  0  0  0  0  0  0
    2.8066    0.0959    0.8110 O   0  0  0  0  0  0  0  0  0  0  0  0
    4.5053   -1.5024    1.3108 C   0  0  0  0  0  0  0  0  0  0  0  0
    4.7505   -2.7411    1.9437 C   0  0  0  0  0  0  0  0  0  0  0  0
    3.7759   -3.5163    2.4632 O   0  0  0  0  0  0  0  0  0  0  0  0
    6.1875   -3.2263    2.0448 C   0  0  0  0  0  0  0  0  0  0  0  0
    6.5429   -4.4293    1.4574 C   0  0  0  0  0  0  0  0  0  0  0  0
    7.8101   -4.9121    1.8610 C   0  0  0  0  0  0  0  0  0  0  0  0
    8.7435   -4.1760    2.4364 C   0  0  0  0  0  0  0  0  0  0  0  0
    8.3431   -2.9682    2.9365 C   0  0  0  0  0  0  0  0  0  0  0  0
    7.0787   -2.4875    2.6952 C   0  0  0  0  0  0  0  0  0  0  0  0
    0.5589    0.8908   -0.3782 H   0  0  0  0  0  0  0  0  0  0  0  0
    0.5589   -0.8350   -0.6512 H   0  0  0  0  0  0  0  0  0  0  0  0
    1.9855   -0.0509   -0.0165 H   0  0  0  0  0  0  0  0  0  0  0  0
   -1.1747   -1.9495    2.6579 H   0  0  0  0  0  0  0  0  0  0  0  0
   -0.5060   -4.1105    3.5981 H   0  0  0  0  0  0  0  0  0  0  0  0
    1.8382   -4.8511    3.4880 H   0  0  0  0  0  0  0  0  0  0  0  0
    5.3044   -0.9548    0.8563 H   0  0  0  0  0  0  0  0  0  0  0  0
    5.9159   -4.9466    0.7614 H   0  0  0  0  0  0  0  0  0  0  0  0
    8.0273   -5.9455    1.6882 H   0  0  0  0  0  0  0  0  0  0  0  0
    9.7585   -4.5071    2.5073 H   0  0  0  0  0  0  0  0  0  0  0  0
    9.0241   -2.3889    3.5243 H   0  0  0  0  0  0  0  0  0  0  0  0
    6.8099   -1.5089    3.0344 H   0  0  0  0  0  0  0  0  0  0  0  0
  1  2  1  0  0  0  0
  1 20  1  0  0  0  0
  1 21  1  0  0  0  0
  1 22  1  0  0  0  0
  2  3  1  0  0  0  0
  3  4  2  0  0  0  0
  3  8  1  0  0  0  0
  4  5  1  0  0  0  0
  4 23  1  0  0  0  0
  5  6  2  0  0  0  0
  5 24  1  0  0  0  0
  6  7  1  0  0  0  0
  6 25  1  0  0  0  0
  7  8  2  0  0  0  0
  7 13  1  0  0  0  0
  8  9  1  0  0  0  0
  9 10  2  0  0  0  0
  9 11  1  0  0  0  0
 11 12  2  0  0  0  0
 11 26  1  0  0  0  0
 12 13  1  0  0  0  0
 12 14  1  0  0  0  0
 14 15  2  0  0  0  0
 14 19  1  0  0  0  0
 15 16  1  0  0  0  0
 15 27  1  0  0  0  0
 16 17  2  0  0  0  0
 16 28  1  0  0  0  0
 17 18  1  0  0  0  0
 17 29  1  0  0  0  0
 18 19  2  0  0  0  0
 18 30  1  0  0  0  0
 19 31  1  0  0  0  0
M  END
