
 OpenBabel09282512363D

 34 35  0  0  0  0  0  0  0  0999 V2000
    0.9190    0.0565    0.0155 C   0  0  0  0  0  0  0  0  0  0  0  0
    0.4456   -1.0347   -0.7602 O   0  0  0  0  0  0  0  0  0  0  0  0
    0.8348   -2.2671   -0.3619 C   0  0  0  0  0  0  0  0  0  0  0  0
    0.5227   -3.3261   -1.1805 C   0  0  0  0  0  0  0  0  0  0  0  0
    0.9177   -4.6050   -0.8385 C   0  0  0  0  0  0  0  0  0  0  0  0
    1.6071   -4.8283    0.3287 C   0  0  0  0  0  0  0  0  0  0  0  0
    2.0483   -6.2371    0.6907 C   0  0  0  0  0  0  0  0  0  0  0  0
    1.7794   -7.2065   -0.0859 O   0  0  0  0  0  0  0  0  0  0  0  0
    2.8112   -6.4865    1.9815 C   0  0  0  0  0  0  0  0  0  0  0  0
    3.0990   -5.4488    2.8128 C   0  0  0  0  0  0  0  0  0  0  0  0
    3.8619   -5.6982    4.1037 C   0  0  0  0  0  0  0  0  0  0  0  0
    4.9737   -6.5116    4.0927 C   0  0  0  0  0  0  0  0  0  0  0  0
    5.6869   -6.7739    5.2670 C   0  0  0  0  0  0  0  0  0  0  0  0
    5.2367   -6.1616    6.4549 C   0  0  0  0  0  0  0  0  0  0  0  0
    5.8775   -6.3388    7.6326 O   0  0  0  0  0  0  0  0  0  0  0  0
    4.1089   -5.3759    6.4585 C   0  0  0  0  0  0  0  0  0  0  0  0
    3.4279   -5.1375    5.2804 C   0  0  0  0  0  0  0  0  0  0  0  0
    1.8996   -3.7789    1.1719 C   0  0  0  0  0  0  0  0  0  0  0  0
    2.6026   -4.0282    2.3802 O   0  0  0  0  0  0  0  0  0  0  0  0
    1.5149   -2.4715    0.8564 C   0  0  0  0  0  0  0  0  0  0  0  0
    0.5623   -0.0385    1.0198 H   0  0  0  0  0  0  0  0  0  0  0  0
    0.5623    0.9738   -0.4044 H   0  0  0  0  0  0  0  0  0  0  0  0
    1.9890    0.0565    0.0155 H   0  0  0  0  0  0  0  0  0  0  0  0
   -0.0267   -3.1600   -2.0835 H   0  0  0  0  0  0  0  0  0  0  0  0
    0.6858   -5.4251   -1.4854 H   0  0  0  0  0  0  0  0  0  0  0  0
    3.1218   -7.4782    2.2363 H   0  0  0  0  0  0  0  0  0  0  0  0
    2.7885   -4.4571    2.5580 H   0  0  0  0  0  0  0  0  0  0  0  0
    5.2966   -6.9496    3.1714 H   0  0  0  0  0  0  0  0  0  0  0  0
    6.5430   -7.4159    5.2641 H   0  0  0  0  0  0  0  0  0  0  0  0
    6.7020   -6.9033    7.6732 H   0  0  0  0  0  0  0  0  0  0  0  0
    3.7581   -4.9486    7.3746 H   0  0  0  0  0  0  0  0  0  0  0  0
    2.5588   -4.5135    5.2845 H   0  0  0  0  0  0  0  0  0  0  0  0
    2.8190   -3.2722    2.9979 H   0  0  0  0  0  0  0  0  0  0  0  0
    1.7290   -1.6563    1.5155 H   0  0  0  0  0  0  0  0  0  0  0  0
  1  2  1  0  0  0  0
  1 21  1  0  0  0  0
  1 22  1  0  0  0  0
  1 23  1  0  0  0  0
  2  3  1  0  0  0  0
  3  4  1  0  0  0  0
  3 20  2  0  0  0  0
  4  5  2  0  0  0  0
  4 24  1  0  0  0  0
  5  6  1  0  0  0  0
  5 25  1  0  0  0  0
  6  7  1  0  0  0  0
  6 18  2  0  0  0  0
  7  8  2  0  0  0  0
  7  9  1  0  0  0  0
  9 10  2  0  0  0  0
  9 26  1  0  0  0  0
 10 11  1  0  0  0  0
 10 27  1  0  0  0  0
 11 12  1  0  0  0  0
 11 17  2  0  0  0  0
 12 13  2  0  0  0  0
 12 28  1  0  0  0  0
 13 14  1  0  0  0  0
 13 29  1  0  0  0  0
 14 15  1  0  0  0  0
 14 16  2  0  0  0  0
 15 30  1  0  0  0  0
 16 17  1  0  0  0  0
 16 31  1  0  0  0  0
 17 32  1  0  0  0  0
 18 19  1  0  0  0  0
 18 20  1  0  0  0  0
 19 33  1  0  0  0  0
 20 34  1  0  0  0  0
M  END
