
 OpenBabel09282512363D

 37 38  0  0  0  0  0  0  0  0999 V2000
    1.0309    0.0697    0.0647 C   0  0  0  0  0  0  0  0  0  0  0  0
    0.5576   -0.7843   -0.9663 O   0  0  0  0  0  0  0  0  0  0  0  0
    0.9006   -0.5219   -2.3190 C   0  0  0  0  0  0  0  0  0  0  0  0
   -0.0824   -0.5311   -3.2948 C   0  0  0  0  0  0  0  0  0  0  0  0
    0.4210   -0.4799   -4.6162 C   0  0  0  0  0  0  0  0  0  0  0  0
    1.6436   -0.0979   -4.9376 C   0  0  0  0  0  0  0  0  0  0  0  0
    2.0209    0.2619   -6.3654 C   0  0  0  0  0  0  0  0  0  0  0  0
    1.0878    0.1948   -7.3530 C   0  0  0  0  0  0  0  0  0  0  0  0
    1.4651    0.5546   -8.7808 C   0  0  0  0  0  0  0  0  0  0  0  0
    0.5933    0.4919   -9.7035 O   0  0  0  0  0  0  0  0  0  0  0  0
    2.8850    0.9894   -9.1051 C   0  0  0  0  0  0  0  0  0  0  0  0
    3.0935    2.0902   -9.9196 C   0  0  0  0  0  0  0  0  0  0  0  0
    4.4256    2.2196  -10.3786 C   0  0  0  0  0  0  0  0  0  0  0  0
    5.4664    1.6123   -9.8381 C   0  0  0  0  0  0  0  0  0  0  0  0
    6.7982    2.0137  -10.1235 O   0  0  0  0  0  0  0  0  0  0  0  0
    7.8894    1.3336   -9.5209 C   0  0  0  0  0  0  0  0  0  0  0  0
    5.1925    0.5763   -8.9890 C   0  0  0  0  0  0  0  0  0  0  0  0
    3.9037    0.3055   -8.5972 C   0  0  0  0  0  0  0  0  0  0  0  0
    3.6588   -0.7149   -7.6406 O   0  0  0  0  0  0  0  0  0  0  0  0
    2.5518   -0.0434   -3.9169 C   0  0  0  0  0  0  0  0  0  0  0  0
    2.1585   -0.2129   -2.6114 C   0  0  0  0  0  0  0  0  0  0  0  0
    0.6742   -0.2814    1.0105 H   0  0  0  0  0  0  0  0  0  0  0  0
    0.6743    1.0643   -0.1042 H   0  0  0  0  0  0  0  0  0  0  0  0
    2.1009    0.0697    0.0647 H   0  0  0  0  0  0  0  0  0  0  0  0
   -1.1276   -0.5732   -3.0698 H   0  0  0  0  0  0  0  0  0  0  0  0
   -0.2345   -0.7709   -5.4102 H   0  0  0  0  0  0  0  0  0  0  0  0
    3.0205    0.5680   -6.5936 H   0  0  0  0  0  0  0  0  0  0  0  0
    0.0882   -0.1112   -7.1247 H   0  0  0  0  0  0  0  0  0  0  0  0
    2.3175    2.7800  -10.1782 H   0  0  0  0  0  0  0  0  0  0  0  0
    4.6021    2.8537  -11.2222 H   0  0  0  0  0  0  0  0  0  0  0  0
    7.8170    1.4160   -8.4565 H   0  0  0  0  0  0  0  0  0  0  0  0
    7.8648    0.3012   -9.8012 H   0  0  0  0  0  0  0  0  0  0  0  0
    8.8084    1.7710   -9.8508 H   0  0  0  0  0  0  0  0  0  0  0  0
    5.9934   -0.0324   -8.6242 H   0  0  0  0  0  0  0  0  0  0  0  0
    2.7225   -0.9157   -7.3523 H   0  0  0  0  0  0  0  0  0  0  0  0
    3.5836    0.1338   -4.1381 H   0  0  0  0  0  0  0  0  0  0  0  0
    2.8723   -0.0948   -1.8231 H   0  0  0  0  0  0  0  0  0  0  0  0
  1  2  1  0  0  0  0
  1 22  1  0  0  0  0
  1 23  1  0  0  0  0
  1 24  1  0  0  0  0
  2  3  1  0  0  0  0
  3  4  1  0  0  0  0
  3 21  2  0  0  0  0
  4  5  2  0  0  0  0
  4 25  1  0  0  0  0
  5  6  1  0  0  0  0
  5 26  1  0  0  0  0
  6  7  1  0  0  0  0
  6 20  2  0  0  0  0
  7  8  2  0  0  0  0
  7 27  1  0  0  0  0
  8  9  1  0  0  0  0
  8 28  1  0  0  0  0
  9 10  2  0  0  0  0
  9 11  1  0  0  0  0
 11 12  1  0  0  0  0
 11 18  2  0  0  0  0
 12 13  2  0  0  0  0
 12 29  1  0  0  0  0
 13 14  1  0  0  0  0
 13 30  1  0  0  0  0
 14 15  1  0  0  0  0
 14 17  2  0  0  0  0
 15 16  1  0  0  0  0
 16 31  1  0  0  0  0
 16 32  1  0  0  0  0
 16 33  1  0  0  0  0
 17 18  1  0  0  0  0
 17 34  1  0  0  0  0
 18 19  1  0  0  0  0
 19 35  1  0  0  0  0
 20 21  1  0  0  0  0
 20 36  1  0  0  0  0
 21 37  1  0  0  0  0
M  END
