
 OpenBabel09282512363D

 40 41  0  0  0  0  0  0  0  0999 V2000
    0.9165   -0.0077    0.0544 C   0  0  0  0  0  0  0  0  0  0  0  0
    0.4431   -1.2661    0.5114 O   0  0  0  0  0  0  0  0  0  0  0  0
    0.7862   -2.4515   -0.1911 C   0  0  0  0  0  0  0  0  0  0  0  0
   -0.2878   -3.2728   -0.4921 C   0  0  0  0  0  0  0  0  0  0  0  0
    0.0835   -4.5301   -1.0243 C   0  0  0  0  0  0  0  0  0  0  0  0
    1.2684   -4.8055   -1.5383 C   0  0  0  0  0  0  0  0  0  0  0  0
    1.5036   -6.0408   -2.3920 C   0  0  0  0  0  0  0  0  0  0  0  0
    0.5456   -6.8419   -2.6282 O   0  0  0  0  0  0  0  0  0  0  0  0
    2.8846   -6.3182   -2.9633 C   0  0  0  0  0  0  0  0  0  0  0  0
    3.9101   -5.4608   -2.7105 C   0  0  0  0  0  0  0  0  0  0  0  0
    5.2911   -5.7382   -3.2818 C   0  0  0  0  0  0  0  0  0  0  0  0
    6.4009   -5.6022   -2.4643 C   0  0  0  0  0  0  0  0  0  0  0  0
    7.6313   -5.6041   -3.1630 C   0  0  0  0  0  0  0  0  0  0  0  0
    7.7910   -6.0461   -4.3971 C   0  0  0  0  0  0  0  0  0  0  0  0
    6.6515   -6.2250   -5.1313 C   0  0  0  0  0  0  0  0  0  0  0  0
    5.4116   -6.1117   -4.5503 C   0  0  0  0  0  0  0  0  0  0  0  0
    2.2723   -3.9195   -1.2611 C   0  0  0  0  0  0  0  0  0  0  0  0
    3.6060   -4.2344   -1.6331 O   0  0  0  0  0  0  0  0  0  0  0  0
    4.6564   -3.3216   -1.3501 C   0  0  0  0  0  0  0  0  0  0  0  0
    2.0091   -2.7289   -0.6278 C   0  0  0  0  0  0  0  0  0  0  0  0
    3.0544   -1.7865   -0.4386 O   0  0  0  0  0  0  0  0  0  0  0  0
    2.7895   -0.5541    0.2150 C   0  0  0  0  0  0  0  0  0  0  0  0
    0.5598    0.7646    0.7034 H   0  0  0  0  0  0  0  0  0  0  0  0
    0.5598    0.1682   -0.9390 H   0  0  0  0  0  0  0  0  0  0  0  0
    1.9865   -0.0077    0.0544 H   0  0  0  0  0  0  0  0  0  0  0  0
   -1.3059   -2.9827   -0.3363 H   0  0  0  0  0  0  0  0  0  0  0  0
   -0.6465   -5.3122   -1.0093 H   0  0  0  0  0  0  0  0  0  0  0  0
    3.0502   -7.1879   -3.5643 H   0  0  0  0  0  0  0  0  0  0  0  0
    3.7445   -4.5911   -2.1095 H   0  0  0  0  0  0  0  0  0  0  0  0
    6.3339   -5.5045   -1.4008 H   0  0  0  0  0  0  0  0  0  0  0  0
    8.4921   -5.2207   -2.6561 H   0  0  0  0  0  0  0  0  0  0  0  0
    8.7601   -6.2531   -4.8008 H   0  0  0  0  0  0  0  0  0  0  0  0
    6.7265   -6.4566   -6.1732 H   0  0  0  0  0  0  0  0  0  0  0  0
    4.5351   -6.3264   -5.1253 H   0  0  0  0  0  0  0  0  0  0  0  0
    4.4632   -2.3917   -1.8430 H   0  0  0  0  0  0  0  0  0  0  0  0
    4.7138   -3.1603   -0.2939 H   0  0  0  0  0  0  0  0  0  0  0  0
    5.5835   -3.7251   -1.7003 H   0  0  0  0  0  0  0  0  0  0  0  0
    2.0484   -0.0114   -0.3337 H   0  0  0  0  0  0  0  0  0  0  0  0
    2.4314   -0.7452    1.2051 H   0  0  0  0  0  0  0  0  0  0  0  0
    3.6890    0.0230    0.2663 H   0  0  0  0  0  0  0  0  0  0  0  0
  1  2  1  0  0  0  0
  1 23  1  0  0  0  0
  1 24  1  0  0  0  0
  1 25  1  0  0  0  0
  2  3  1  0  0  0  0
  3  4  1  0  0  0  0
  3 20  2  0  0  0  0
  4  5  2  0  0  0  0
  4 26  1  0  0  0  0
  5  6  1  0  0  0  0
  5 27  1  0  0  0  0
  6  7  1  0  0  0  0
  6 17  2  0  0  0  0
  7  8  2  0  0  0  0
  7  9  1  0  0  0  0
  9 10  2  0  0  0  0
  9 28  1  0  0  0  0
 10 11  1  0  0  0  0
 10 29  1  0  0  0  0
 11 12  1  0  0  0  0
 11 16  2  0  0  0  0
 12 13  2  0  0  0  0
 12 30  1  0  0  0  0
 13 14  1  0  0  0  0
 13 31  1  0  0  0  0
 14 15  2  0  0  0  0
 14 32  1  0  0  0  0
 15 16  1  0  0  0  0
 15 33  1  0  0  0  0
 16 34  1  0  0  0  0
 17 18  1  0  0  0  0
 17 20  1  0  0  0  0
 18 19  1  0  0  0  0
 19 35  1  0  0  0  0
 19 36  1  0  0  0  0
 19 37  1  0  0  0  0
 20 21  1  0  0  0  0
 21 22  1  0  0  0  0
 22 38  1  0  0  0  0
 22 39  1  0  0  0  0
 22 40  1  0  0  0  0
M  END
