
 OpenBabel09282512363D

 34 35  0  0  0  0  0  0  0  0999 V2000
    1.0584    0.0405    0.0704 C   0  0  0  0  0  0  0  0  0  0  0  0
    0.5850    1.3356    0.4094 O   0  0  0  0  0  0  0  0  0  0  0  0
    0.9281    1.9118    1.6611 C   0  0  0  0  0  0  0  0  0  0  0  0
   -0.0101    2.6625    2.3502 C   0  0  0  0  0  0  0  0  0  0  0  0
    0.5489    3.5324    3.3160 C   0  0  0  0  0  0  0  0  0  0  0  0
   -0.3169    4.6728    3.8259 C   0  0  0  0  0  0  0  0  0  0  0  0
   -1.5830    4.8295    3.3534 C   0  0  0  0  0  0  0  0  0  0  0  0
   -2.4489    5.9699    3.8634 C   0  0  0  0  0  0  0  0  0  0  0  0
   -3.7744    5.6841    4.1460 C   0  0  0  0  0  0  0  0  0  0  0  0
   -4.5929    6.8308    4.2765 C   0  0  0  0  0  0  0  0  0  0  0  0
   -4.1405    8.0546    4.4808 C   0  0  0  0  0  0  0  0  0  0  0  0
   -2.8082    8.2569    4.2497 C   0  0  0  0  0  0  0  0  0  0  0  0
   -1.9684    7.2017    3.9867 C   0  0  0  0  0  0  0  0  0  0  0  0
    1.7707    3.4224    3.8051 C   0  0  0  0  0  0  0  0  0  0  0  0
    2.6306    2.6122    3.1169 C   0  0  0  0  0  0  0  0  0  0  0  0
    4.0026    2.5779    3.4814 O   0  0  0  0  0  0  0  0  0  0  0  0
    4.9045    1.7402    2.7735 C   0  0  0  0  0  0  0  0  0  0  0  0
    2.1863    1.8308    2.0778 C   0  0  0  0  0  0  0  0  0  0  0  0
    0.7017   -0.2263   -0.9025 H   0  0  0  0  0  0  0  0  0  0  0  0
    0.7017   -0.6687    0.7879 H   0  0  0  0  0  0  0  0  0  0  0  0
    2.1284    0.0405    0.0704 H   0  0  0  0  0  0  0  0  0  0  0  0
   -1.0622    2.5910    2.1687 H   0  0  0  0  0  0  0  0  0  0  0  0
    0.0693    5.3525    4.5566 H   0  0  0  0  0  0  0  0  0  0  0  0
   -1.9693    4.1498    2.6228 H   0  0  0  0  0  0  0  0  0  0  0  0
   -4.1457    4.6866    4.2556 H   0  0  0  0  0  0  0  0  0  0  0  0
   -5.6521    6.6972    4.2047 H   0  0  0  0  0  0  0  0  0  0  0  0
   -4.7821    8.8453    4.8096 H   0  0  0  0  0  0  0  0  0  0  0  0
   -2.4138    9.2513    4.2739 H   0  0  0  0  0  0  0  0  0  0  0  0
   -0.9178    7.3740    3.8803 H   0  0  0  0  0  0  0  0  0  0  0  0
    2.0714    3.9395    4.6923 H   0  0  0  0  0  0  0  0  0  0  0  0
    4.5884    0.7216    2.8606 H   0  0  0  0  0  0  0  0  0  0  0  0
    4.9182    2.0223    1.7415 H   0  0  0  0  0  0  0  0  0  0  0  0
    5.8866    1.8452    3.1850 H   0  0  0  0  0  0  0  0  0  0  0  0
    2.8602    1.1507    1.6000 H   0  0  0  0  0  0  0  0  0  0  0  0
  1  2  1  0  0  0  0
  1 19  1  0  0  0  0
  1 20  1  0  0  0  0
  1 21  1  0  0  0  0
  2  3  1  0  0  0  0
  3  4  1  0  0  0  0
  3 18  2  0  0  0  0
  4  5  2  0  0  0  0
  4 22  1  0  0  0  0
  5  6  1  0  0  0  0
  5 14  1  0  0  0  0
  6  7  2  0  0  0  0
  6 23  1  0  0  0  0
  7  8  1  0  0  0  0
  7 24  1  0  0  0  0
  8  9  1  0  0  0  0
  8 13  2  0  0  0  0
  9 10  2  0  0  0  0
  9 25  1  0  0  0  0
 10 11  1  0  0  0  0
 10 26  1  0  0  0  0
 11 12  2  0  0  0  0
 11 27  1  0  0  0  0
 12 13  1  0  0  0  0
 12 28  1  0  0  0  0
 13 29  1  0  0  0  0
 14 15  2  0  0  0  0
 14 30  1  0  0  0  0
 15 16  1  0  0  0  0
 15 18  1  0  0  0  0
 16 17  1  0  0  0  0
 17 31  1  0  0  0  0
 17 32  1  0  0  0  0
 17 33  1  0  0  0  0
 18 34  1  0  0  0  0
M  END
