
 OpenBabel09282512363D

 31 32  0  0  0  0  0  0  0  0999 V2000
    1.0765    0.0348   -0.0542 C   0  0  0  0  0  0  0  0  0  0  0  0
    0.6032    1.2627    0.4792 O   0  0  0  0  0  0  0  0  0  0  0  0
   -0.3103    1.3452    1.4731 C   0  0  0  0  0  0  0  0  0  0  0  0
   -0.5994    2.5950    1.9666 C   0  0  0  0  0  0  0  0  0  0  0  0
   -1.5439    2.7438    2.9638 C   0  0  0  0  0  0  0  0  0  0  0  0
   -1.8533    4.0389    3.4569 O   0  0  0  0  0  0  0  0  0  0  0  0
   -2.1850    1.6440    3.4804 C   0  0  0  0  0  0  0  0  0  0  0  0
   -1.8820    0.3834    3.0147 C   0  0  0  0  0  0  0  0  0  0  0  0
   -2.5919   -0.8234    3.6064 C   0  0  0  0  0  0  0  0  0  0  0  0
   -3.5184   -0.6538    4.5880 C   0  0  0  0  0  0  0  0  0  0  0  0
   -4.2283   -1.8606    5.1797 C   0  0  0  0  0  0  0  0  0  0  0  0
   -5.5819   -1.8452    5.4732 C   0  0  0  0  0  0  0  0  0  0  0  0
   -5.9893   -2.8752    6.3537 C   0  0  0  0  0  0  0  0  0  0  0  0
   -5.2880   -3.9653    6.6066 C   0  0  0  0  0  0  0  0  0  0  0  0
   -3.9736   -3.9436    6.2308 C   0  0  0  0  0  0  0  0  0  0  0  0
   -3.4700   -2.9081    5.4810 C   0  0  0  0  0  0  0  0  0  0  0  0
   -0.9312    0.1966    2.0059 C   0  0  0  0  0  0  0  0  0  0  0  0
    0.7198   -0.0797   -1.0565 H   0  0  0  0  0  0  0  0  0  0  0  0
    0.7198   -0.7760    0.5461 H   0  0  0  0  0  0  0  0  0  0  0  0
    2.1465    0.0348   -0.0542 H   0  0  0  0  0  0  0  0  0  0  0  0
   -0.0926    3.4535    1.5781 H   0  0  0  0  0  0  0  0  0  0  0  0
   -2.5366    4.1491    4.1787 H   0  0  0  0  0  0  0  0  0  0  0  0
   -2.9217    1.7669    4.2466 H   0  0  0  0  0  0  0  0  0  0  0  0
   -2.3630   -1.8063    3.2509 H   0  0  0  0  0  0  0  0  0  0  0  0
   -3.7474    0.3291    4.9436 H   0  0  0  0  0  0  0  0  0  0  0  0
   -6.2581   -1.1202    5.0707 H   0  0  0  0  0  0  0  0  0  0  0  0
   -6.9311   -2.7631    6.8491 H   0  0  0  0  0  0  0  0  0  0  0  0
   -5.7250   -4.8196    7.0800 H   0  0  0  0  0  0  0  0  0  0  0  0
   -3.3278   -4.7445    6.5248 H   0  0  0  0  0  0  0  0  0  0  0  0
   -2.4576   -2.9462    5.1368 H   0  0  0  0  0  0  0  0  0  0  0  0
   -0.6841   -0.7822    1.6513 H   0  0  0  0  0  0  0  0  0  0  0  0
  1  2  1  0  0  0  0
  1 18  1  0  0  0  0
  1 19  1  0  0  0  0
  1 20  1  0  0  0  0
  2  3  1  0  0  0  0
  3  4  1  0  0  0  0
  3 17  2  0  0  0  0
  4  5  2  0  0  0  0
  4 21  1  0  0  0  0
  5  6  1  0  0  0  0
  5  7  1  0  0  0  0
  6 22  1  0  0  0  0
  7  8  2  0  0  0  0
  7 23  1  0  0  0  0
  8  9  1  0  0  0  0
  8 17  1  0  0  0  0
  9 10  2  0  0  0  0
  9 24  1  0  0  0  0
 10 11  1  0  0  0  0
 10 25  1  0  0  0  0
 11 12  1  0  0  0  0
 11 16  2  0  0  0  0
 12 13  2  0  0  0  0
 12 26  1  0  0  0  0
 13 14  1  0  0  0  0
 13 27  1  0  0  0  0
 14 15  2  0  0  0  0
 14 28  1  0  0  0  0
 15 16  1  0  0  0  0
 15 29  1  0  0  0  0
 16 30  1  0  0  0  0
 17 31  1  0  0  0  0
M  END
