
 OpenBabel09282512363D

 35 36  0  0  0  0  0  0  0  0999 V2000
    0.9239    0.0153    0.0631 C   0  0  0  0  0  0  0  0  0  0  0  0
    0.4506   -0.6431   -1.1026 O   0  0  0  0  0  0  0  0  0  0  0  0
    0.7936   -0.1459   -2.3877 C   0  0  0  0  0  0  0  0  0  0  0  0
   -0.1773    0.0817   -3.3490 C   0  0  0  0  0  0  0  0  0  0  0  0
    0.3431    0.4234   -4.6196 C   0  0  0  0  0  0  0  0  0  0  0  0
   -0.5794    0.2911   -5.8204 C   0  0  0  0  0  0  0  0  0  0  0  0
   -1.8575   -0.1434   -5.6517 C   0  0  0  0  0  0  0  0  0  0  0  0
   -2.7800   -0.2758   -6.8525 C   0  0  0  0  0  0  0  0  0  0  0  0
   -4.0766    0.2044   -6.7701 C   0  0  0  0  0  0  0  0  0  0  0  0
   -4.9150   -0.2247   -7.8260 C   0  0  0  0  0  0  0  0  0  0  0  0
   -4.4828   -0.7181   -8.9723 C   0  0  0  0  0  0  0  0  0  0  0  0
   -5.3319   -0.8338  -10.1046 O   0  0  0  0  0  0  0  0  0  0  0  0
   -3.1739   -1.1114   -9.0101 C   0  0  0  0  0  0  0  0  0  0  0  0
   -2.3252   -0.8442   -7.9631 C   0  0  0  0  0  0  0  0  0  0  0  0
    1.5745    0.8493   -4.8349 C   0  0  0  0  0  0  0  0  0  0  0  0
    2.4706    0.6568   -3.8203 C   0  0  0  0  0  0  0  0  0  0  0  0
    3.8463    0.9310   -4.0403 O   0  0  0  0  0  0  0  0  0  0  0  0
    4.7857    0.7346   -2.9936 C   0  0  0  0  0  0  0  0  0  0  0  0
    2.0590    0.2018   -2.5908 C   0  0  0  0  0  0  0  0  0  0  0  0
    0.5673   -0.4973    0.9319 H   0  0  0  0  0  0  0  0  0  0  0  0
    0.5673    1.0241    0.0726 H   0  0  0  0  0  0  0  0  0  0  0  0
    1.9939    0.0153    0.0631 H   0  0  0  0  0  0  0  0  0  0  0  0
   -1.2257    0.0060   -3.1489 H   0  0  0  0  0  0  0  0  0  0  0  0
   -0.2236    0.5397   -6.7984 H   0  0  0  0  0  0  0  0  0  0  0  0
   -2.2133   -0.3921   -4.6737 H   0  0  0  0  0  0  0  0  0  0  0  0
   -4.4136    0.8419   -5.9796 H   0  0  0  0  0  0  0  0  0  0  0  0
   -5.9727   -0.1437   -7.6862 H   0  0  0  0  0  0  0  0  0  0  0  0
   -4.9764   -1.2115  -10.9595 H   0  0  0  0  0  0  0  0  0  0  0  0
   -2.8052   -1.6349   -9.8673 H   0  0  0  0  0  0  0  0  0  0  0  0
   -1.2885   -1.0965   -8.0433 H   0  0  0  0  0  0  0  0  0  0  0  0
    1.8558    1.3197   -5.7538 H   0  0  0  0  0  0  0  0  0  0  0  0
    4.5280    1.3564   -2.1618 H   0  0  0  0  0  0  0  0  0  0  0  0
    4.7720   -0.2913   -2.6899 H   0  0  0  0  0  0  0  0  0  0  0  0
    5.7649    0.9908   -3.3405 H   0  0  0  0  0  0  0  0  0  0  0  0
    2.7645    0.1269   -1.7899 H   0  0  0  0  0  0  0  0  0  0  0  0
  1  2  1  0  0  0  0
  1 20  1  0  0  0  0
  1 21  1  0  0  0  0
  1 22  1  0  0  0  0
  2  3  1  0  0  0  0
  3  4  1  0  0  0  0
  3 19  2  0  0  0  0
  4  5  2  0  0  0  0
  4 23  1  0  0  0  0
  5  6  1  0  0  0  0
  5 15  1  0  0  0  0
  6  7  2  0  0  0  0
  6 24  1  0  0  0  0
  7  8  1  0  0  0  0
  7 25  1  0  0  0  0
  8  9  1  0  0  0  0
  8 14  2  0  0  0  0
  9 10  2  0  0  0  0
  9 26  1  0  0  0  0
 10 11  1  0  0  0  0
 10 27  1  0  0  0  0
 11 12  1  0  0  0  0
 11 13  2  0  0  0  0
 12 28  1  0  0  0  0
 13 14  1  0  0  0  0
 13 29  1  0  0  0  0
 14 30  1  0  0  0  0
 15 16  2  0  0  0  0
 15 31  1  0  0  0  0
 16 17  1  0  0  0  0
 16 19  1  0  0  0  0
 17 18  1  0  0  0  0
 18 32  1  0  0  0  0
 18 33  1  0  0  0  0
 18 34  1  0  0  0  0
 19 35  1  0  0  0  0
M  END
