
 OpenBabel09282512363D

 35 37  0  0  0  0  0  0  0  0999 V2000
    1.0364   -0.0769   -0.0525 C   0  0  0  0  0  0  0  0  0  0  0  0
    0.5631   -1.4002   -0.2556 O   0  0  0  0  0  0  0  0  0  0  0  0
    0.9061   -2.1029   -1.4409 C   0  0  0  0  0  0  0  0  0  0  0  0
   -0.1502   -2.6594   -2.1430 C   0  0  0  0  0  0  0  0  0  0  0  0
    0.2488   -3.4690   -3.2327 C   0  0  0  0  0  0  0  0  0  0  0  0
    1.4468   -3.4404   -3.7877 C   0  0  0  0  0  0  0  0  0  0  0  0
    1.6977   -4.0263   -5.0566 O   0  0  0  0  0  0  0  0  0  0  0  0
    3.0010   -3.9734   -5.6179 C   0  0  0  0  0  0  0  0  0  0  0  0
    2.4326   -2.8163   -3.0748 C   0  0  0  0  0  0  0  0  0  0  0  0
    3.8720   -2.8990   -3.5560 C   0  0  0  0  0  0  0  0  0  0  0  0
    4.9184   -2.2455   -2.8130 C   0  0  0  0  0  0  0  0  0  0  0  0
    4.6009   -1.5135   -1.6140 C   0  0  0  0  0  0  0  0  0  0  0  0
    5.5243   -0.9368   -0.9583 O   0  0  0  0  0  0  0  0  0  0  0  0
    3.1615   -1.4308   -1.1328 C   0  0  0  0  0  0  0  0  0  0  0  0
    2.6538   -0.2116   -0.7152 C   0  0  0  0  0  0  0  0  0  0  0  0
    1.4232   -0.3096   -0.0237 C   0  0  0  0  0  0  0  0  0  0  0  0
    0.6245   -1.3606   -0.0615 C   0  0  0  0  0  0  0  0  0  0  0  0
    1.1654   -2.5182   -0.5482 C   0  0  0  0  0  0  0  0  0  0  0  0
    2.4147   -2.5286   -1.1201 C   0  0  0  0  0  0  0  0  0  0  0  0
    4.1686   -3.5828   -4.6762 O   0  0  0  0  0  0  0  0  0  0  0  0
    2.1407   -2.1153   -1.9296 C   0  0  0  0  0  0  0  0  0  0  0  0
    0.6797    0.2891    0.8875 H   0  0  0  0  0  0  0  0  0  0  0  0
    0.6797    0.5542   -0.8396 H   0  0  0  0  0  0  0  0  0  0  0  0
    2.1064   -0.0769   -0.0525 H   0  0  0  0  0  0  0  0  0  0  0  0
   -1.1751   -2.4923   -1.8848 H   0  0  0  0  0  0  0  0  0  0  0  0
   -0.4700   -4.1518   -3.6351 H   0  0  0  0  0  0  0  0  0  0  0  0
    3.2946   -2.9520   -5.7422 H   0  0  0  0  0  0  0  0  0  0  0  0
    3.6909   -4.4658   -4.9649 H   0  0  0  0  0  0  0  0  0  0  0  0
    2.9996   -4.4624   -6.5696 H   0  0  0  0  0  0  0  0  0  0  0  0
    5.9317   -2.3038   -3.1518 H   0  0  0  0  0  0  0  0  0  0  0  0
    3.1474    0.7198   -0.8988 H   0  0  0  0  0  0  0  0  0  0  0  0
    1.1185    0.5261    0.5711 H   0  0  0  0  0  0  0  0  0  0  0  0
   -0.3912   -1.3091    0.2710 H   0  0  0  0  0  0  0  0  0  0  0  0
    0.6079   -3.4291   -0.4827 H   0  0  0  0  0  0  0  0  0  0  0  0
    2.9153   -1.5746   -1.4271 H   0  0  0  0  0  0  0  0  0  0  0  0
  1  2  1  0  0  0  0
  1 22  1  0  0  0  0
  1 23  1  0  0  0  0
  1 24  1  0  0  0  0
  2  3  1  0  0  0  0
  3  4  1  0  0  0  0
  3 21  2  0  0  0  0
  4  5  2  0  0  0  0
  4 25  1  0  0  0  0
  5  6  1  0  0  0  0
  5 26  1  0  0  0  0
  6  7  1  0  0  0  0
  6  9  2  0  0  0  0
  7  8  1  0  0  0  0
  8 27  1  0  0  0  0
  8 28  1  0  0  0  0
  8 29  1  0  0  0  0
  9 10  1  0  0  0  0
  9 21  1  0  0  0  0
 10 11  2  0  0  0  0
 10 20  1  0  0  0  0
 11 12  1  0  0  0  0
 11 30  1  0  0  0  0
 12 13  2  0  0  0  0
 12 14  1  0  0  0  0
 14 15  1  0  0  0  0
 14 19  2  0  0  0  0
 15 16  2  0  0  0  0
 15 31  1  0  0  0  0
 16 17  1  0  0  0  0
 16 32  1  0  0  0  0
 17 18  2  0  0  0  0
 17 33  1  0  0  0  0
 18 19  1  0  0  0  0
 18 34  1  0  0  0  0
 19 20  1  0  0  0  0
 21 35  1  0  0  0  0
M  END
