
 OpenBabel09282512363D

 44 45  0  0  0  0  0  0  0  0999 V2000
    1.0485   -0.0810   -0.0329 O   0  0  0  0  0  0  0  0  0  0  0  0
    2.3194   -0.0810   -0.0329 C   0  0  0  0  0  0  0  0  0  0  0  0
    3.0794   -0.4473    1.2315 C   0  0  0  0  0  0  0  0  0  0  0  0
    3.9533   -1.6618    0.9635 C   0  0  0  0  0  0  0  0  0  0  0  0
    4.9410   -1.3403   -0.1462 C   0  0  0  0  0  0  0  0  0  0  0  0
    5.8149   -0.1706    0.2765 C   0  0  0  0  0  0  0  0  0  0  0  0
    6.5749   -0.5369    1.5409 C   0  0  0  0  0  0  0  0  0  0  0  0
    6.6174   -1.8536    1.9436 C   0  0  0  0  0  0  0  0  0  0  0  0
    7.2700   -2.2261    3.1235 C   0  0  0  0  0  0  0  0  0  0  0  0
    7.8959   -1.2084    3.8727 C   0  0  0  0  0  0  0  0  0  0  0  0
    8.5700   -1.4784    5.0135 O   0  0  0  0  0  0  0  0  0  0  0  0
    7.8212    0.1054    3.4759 C   0  0  0  0  0  0  0  0  0  0  0  0
    7.1684    0.4386    2.3049 C   0  0  0  0  0  0  0  0  0  0  0  0
    3.0794    0.2852   -1.2973 C   0  0  0  0  0  0  0  0  0  0  0  0
    2.7122   -0.6851   -2.4082 C   0  0  0  0  0  0  0  0  0  0  0  0
    1.2178   -0.6078   -2.6749 C   0  0  0  0  0  0  0  0  0  0  0  0
    0.6030    0.6197   -2.7891 C   0  0  0  0  0  0  0  0  0  0  0  0
   -0.7684    0.7183   -3.0460 C   0  0  0  0  0  0  0  0  0  0  0  0
   -1.4916   -0.4824   -3.2012 C   0  0  0  0  0  0  0  0  0  0  0  0
   -2.8160   -0.4839   -3.4749 O   0  0  0  0  0  0  0  0  0  0  0  0
   -0.8727   -1.7010   -3.0557 C   0  0  0  0  0  0  0  0  0  0  0  0
    0.4839   -1.7623   -2.8019 C   0  0  0  0  0  0  0  0  0  0  0  0
    3.6946    0.3761    1.5290 H   0  0  0  0  0  0  0  0  0  0  0  0
    2.3841   -0.6736    2.0127 H   0  0  0  0  0  0  0  0  0  0  0  0
    4.4883   -1.9196    1.8536 H   0  0  0  0  0  0  0  0  0  0  0  0
    3.3381   -2.4851    0.6660 H   0  0  0  0  0  0  0  0  0  0  0  0
    5.5562   -2.1952   -0.3348 H   0  0  0  0  0  0  0  0  0  0  0  0
    4.4060   -1.0825   -1.0362 H   0  0  0  0  0  0  0  0  0  0  0  0
    6.5102    0.0556   -0.5047 H   0  0  0  0  0  0  0  0  0  0  0  0
    5.1997    0.6843    0.4651 H   0  0  0  0  0  0  0  0  0  0  0  0
    6.1439   -2.6031    1.3446 H   0  0  0  0  0  0  0  0  0  0  0  0
    7.2934   -3.2461    3.4458 H   0  0  0  0  0  0  0  0  0  0  0  0
    8.6478   -2.4213    5.3372 H   0  0  0  0  0  0  0  0  0  0  0  0
    8.2690    0.8709    4.0746 H   0  0  0  0  0  0  0  0  0  0  0  0
    7.1248    1.4608    1.9916 H   0  0  0  0  0  0  0  0  0  0  0  0
    2.8209    1.2805   -1.5931 H   0  0  0  0  0  0  0  0  0  0  0  0
    4.1314    0.2308   -1.1095 H   0  0  0  0  0  0  0  0  0  0  0  0
    3.2472   -0.4273   -3.2982 H   0  0  0  0  0  0  0  0  0  0  0  0
    2.9707   -1.6804   -2.1123 H   0  0  0  0  0  0  0  0  0  0  0  0
    1.1837    1.5117   -2.6795 H   0  0  0  0  0  0  0  0  0  0  0  0
   -1.2513    1.6701   -3.1221 H   0  0  0  0  0  0  0  0  0  0  0  0
   -3.3041    0.3815   -3.5883 H   0  0  0  0  0  0  0  0  0  0  0  0
   -1.4421   -2.6031   -3.1390 H   0  0  0  0  0  0  0  0  0  0  0  0
    0.9651   -2.7129   -2.7037 H   0  0  0  0  0  0  0  0  0  0  0  0
  1  2  2  0  0  0  0
  2  3  1  0  0  0  0
  2 14  1  0  0  0  0
  3  4  1  0  0  0  0
  3 23  1  0  0  0  0
  3 24  1  0  0  0  0
  4  5  1  0  0  0  0
  4 25  1  0  0  0  0
  4 26  1  0  0  0  0
  5  6  1  0  0  0  0
  5 27  1  0  0  0  0
  5 28  1  0  0  0  0
  6  7  1  0  0  0  0
  6 29  1  0  0  0  0
  6 30  1  0  0  0  0
  7  8  1  0  0  0  0
  7 13  2  0  0  0  0
  8  9  2  0  0  0  0
  8 31  1  0  0  0  0
  9 10  1  0  0  0  0
  9 32  1  0  0  0  0
 10 11  1  0  0  0  0
 10 12  2  0  0  0  0
 11 33  1  0  0  0  0
 12 13  1  0  0  0  0
 12 34  1  0  0  0  0
 13 35  1  0  0  0  0
 14 15  1  0  0  0  0
 14 36  1  0  0  0  0
 14 37  1  0  0  0  0
 15 16  1  0  0  0  0
 15 38  1  0  0  0  0
 15 39  1  0  0  0  0
 16 17  1  0  0  0  0
 16 22  2  0  0  0  0
 17 18  2  0  0  0  0
 17 40  1  0  0  0  0
 18 19  1  0  0  0  0
 18 41  1  0  0  0  0
 19 20  1  0  0  0  0
 19 21  2  0  0  0  0
 20 42  1  0  0  0  0
 21 22  1  0  0  0  0
 21 43  1  0  0  0  0
 22 44  1  0  0  0  0
M  END
