
 OpenBabel09282512363D

 34 35  0  0  0  0  0  0  0  0999 V2000
    1.0622    0.0538    0.0569 C   0  0  0  0  0  0  0  0  0  0  0  0
    0.5888   -1.1833   -0.4548 O   0  0  0  0  0  0  0  0  0  0  0  0
    1.1378   -2.3029    0.0687 C   0  0  0  0  0  0  0  0  0  0  0  0
    0.7676   -3.5073   -0.4804 C   0  0  0  0  0  0  0  0  0  0  0  0
    1.3159   -4.6826   -0.0044 C   0  0  0  0  0  0  0  0  0  0  0  0
    0.9190   -6.0102   -0.6290 C   0  0  0  0  0  0  0  0  0  0  0  0
    0.0255   -6.0394   -1.6545 C   0  0  0  0  0  0  0  0  0  0  0  0
   -0.3715   -7.3671   -2.2790 C   0  0  0  0  0  0  0  0  0  0  0  0
   -1.2062   -7.3944   -3.2370 O   0  0  0  0  0  0  0  0  0  0  0  0
    0.2298   -8.6622   -1.7578 C   0  0  0  0  0  0  0  0  0  0  0  0
    0.2791   -8.8048   -0.3885 C   0  0  0  0  0  0  0  0  0  0  0  0
    0.8675   -9.9299    0.1986 C   0  0  0  0  0  0  0  0  0  0  0  0
    1.3900  -10.9174   -0.6619 C   0  0  0  0  0  0  0  0  0  0  0  0
    1.9557  -12.0491   -0.1842 O   0  0  0  0  0  0  0  0  0  0  0  0
    1.3613  -10.7497   -2.0259 C   0  0  0  0  0  0  0  0  0  0  0  0
    0.7725   -9.6260   -2.5727 C   0  0  0  0  0  0  0  0  0  0  0  0
    2.2185   -4.6565    1.0310 C   0  0  0  0  0  0  0  0  0  0  0  0
    2.5746   -3.4579    1.6093 C   0  0  0  0  0  0  0  0  0  0  0  0
    2.0390   -2.2493    1.1521 C   0  0  0  0  0  0  0  0  0  0  0  0
    2.3899   -1.0134    1.7569 O   0  0  0  0  0  0  0  0  0  0  0  0
    0.7055    0.1859    1.0571 H   0  0  0  0  0  0  0  0  0  0  0  0
    0.7055    0.8538   -0.5576 H   0  0  0  0  0  0  0  0  0  0  0  0
    2.1322    0.0538    0.0569 H   0  0  0  0  0  0  0  0  0  0  0  0
    0.0541   -3.5347   -1.2773 H   0  0  0  0  0  0  0  0  0  0  0  0
    1.3422   -6.9219   -0.2621 H   0  0  0  0  0  0  0  0  0  0  0  0
   -0.3978   -5.1278   -2.0214 H   0  0  0  0  0  0  0  0  0  0  0  0
   -0.1391   -8.0431    0.2357 H   0  0  0  0  0  0  0  0  0  0  0  0
    0.9192  -10.0374    1.2619 H   0  0  0  0  0  0  0  0  0  0  0  0
    1.9968  -12.2097    0.8020 H   0  0  0  0  0  0  0  0  0  0  0  0
    1.7954  -11.4902   -2.6647 H   0  0  0  0  0  0  0  0  0  0  0  0
    0.7390   -9.5058   -3.6354 H   0  0  0  0  0  0  0  0  0  0  0  0
    2.6460   -5.5696    1.3893 H   0  0  0  0  0  0  0  0  0  0  0  0
    3.2718   -3.4514    2.4209 H   0  0  0  0  0  0  0  0  0  0  0  0
    1.9961   -0.1600    1.4154 H   0  0  0  0  0  0  0  0  0  0  0  0
  1  2  1  0  0  0  0
  1 21  1  0  0  0  0
  1 22  1  0  0  0  0
  1 23  1  0  0  0  0
  2  3  1  0  0  0  0
  3  4  1  0  0  0  0
  3 19  2  0  0  0  0
  4  5  2  0  0  0  0
  4 24  1  0  0  0  0
  5  6  1  0  0  0  0
  5 17  1  0  0  0  0
  6  7  2  0  0  0  0
  6 25  1  0  0  0  0
  7  8  1  0  0  0  0
  7 26  1  0  0  0  0
  8  9  2  0  0  0  0
  8 10  1  0  0  0  0
 10 11  1  0  0  0  0
 10 16  2  0  0  0  0
 11 12  2  0  0  0  0
 11 27  1  0  0  0  0
 12 13  1  0  0  0  0
 12 28  1  0  0  0  0
 13 14  1  0  0  0  0
 13 15  2  0  0  0  0
 14 29  1  0  0  0  0
 15 16  1  0  0  0  0
 15 30  1  0  0  0  0
 16 31  1  0  0  0  0
 17 18  2  0  0  0  0
 17 32  1  0  0  0  0
 18 19  1  0  0  0  0
 18 33  1  0  0  0  0
 19 20  1  0  0  0  0
 20 34  1  0  0  0  0
M  END
