
 OpenBabel09282512363D

 33 34  0  0  0  0  0  0  0  0999 V2000
    1.0361   -0.0753   -0.0550 C   0  0  0  0  0  0  0  0  0  0  0  0
    0.5628   -1.3948    0.1716 O   0  0  0  0  0  0  0  0  0  0  0  0
    1.3685   -2.4320   -0.1505 C   0  0  0  0  0  0  0  0  0  0  0  0
    0.8978   -3.7002    0.0931 C   0  0  0  0  0  0  0  0  0  0  0  0
    1.6658   -4.7992   -0.2399 C   0  0  0  0  0  0  0  0  0  0  0  0
    2.9098   -4.6316   -0.7983 C   0  0  0  0  0  0  0  0  0  0  0  0
    3.7425   -5.8469   -1.1728 C   0  0  0  0  0  0  0  0  0  0  0  0
    3.2876   -7.0160   -0.9693 O   0  0  0  0  0  0  0  0  0  0  0  0
    5.1191   -5.6638   -1.7906 C   0  0  0  0  0  0  0  0  0  0  0  0
    5.6060   -4.4123   -2.0085 C   0  0  0  0  0  0  0  0  0  0  0  0
    6.9826   -4.2293   -2.6263 C   0  0  0  0  0  0  0  0  0  0  0  0
    7.8560   -3.3035   -2.0798 C   0  0  0  0  0  0  0  0  0  0  0  0
    8.9740   -3.0172   -2.8985 C   0  0  0  0  0  0  0  0  0  0  0  0
    9.3828   -3.7752   -3.8997 C   0  0  0  0  0  0  0  0  0  0  0  0
    8.4995   -4.7169   -4.3496 C   0  0  0  0  0  0  0  0  0  0  0  0
    7.3263   -4.9631   -3.6783 C   0  0  0  0  0  0  0  0  0  0  0  0
    3.4046   -3.3652   -1.0197 C   0  0  0  0  0  0  0  0  0  0  0  0
    4.6971   -3.2091   -1.5868 O   0  0  0  0  0  0  0  0  0  0  0  0
    2.6539   -2.2306   -0.6946 C   0  0  0  0  0  0  0  0  0  0  0  0
    0.6795    0.5697    0.7207 H   0  0  0  0  0  0  0  0  0  0  0  0
    0.6795    0.2739   -1.0014 H   0  0  0  0  0  0  0  0  0  0  0  0
    2.1061   -0.0753   -0.0550 H   0  0  0  0  0  0  0  0  0  0  0  0
   -0.0642   -3.8364    0.5412 H   0  0  0  0  0  0  0  0  0  0  0  0
    1.2900   -5.7852   -0.0623 H   0  0  0  0  0  0  0  0  0  0  0  0
    5.7053   -6.5193   -2.0542 H   0  0  0  0  0  0  0  0  0  0  0  0
    5.0198   -3.5568   -1.7449 H   0  0  0  0  0  0  0  0  0  0  0  0
    7.6995   -2.8463   -1.1251 H   0  0  0  0  0  0  0  0  0  0  0  0
    9.5265   -2.1245   -2.6921 H   0  0  0  0  0  0  0  0  0  0  0  0
   10.3532   -3.6587   -4.3353 H   0  0  0  0  0  0  0  0  0  0  0  0
    8.7251   -5.2700   -5.2374 H   0  0  0  0  0  0  0  0  0  0  0  0
    6.6837   -5.7534   -4.0061 H   0  0  0  0  0  0  0  0  0  0  0  0
    5.0639   -2.2933   -1.7508 H   0  0  0  0  0  0  0  0  0  0  0  0
    3.0407   -1.2456   -0.8531 H   0  0  0  0  0  0  0  0  0  0  0  0
  1  2  1  0  0  0  0
  1 20  1  0  0  0  0
  1 21  1  0  0  0  0
  1 22  1  0  0  0  0
  2  3  1  0  0  0  0
  3  4  1  0  0  0  0
  3 19  2  0  0  0  0
  4  5  2  0  0  0  0
  4 23  1  0  0  0  0
  5  6  1  0  0  0  0
  5 24  1  0  0  0  0
  6  7  1  0  0  0  0
  6 17  2  0  0  0  0
  7  8  2  0  0  0  0
  7  9  1  0  0  0  0
  9 10  2  0  0  0  0
  9 25  1  0  0  0  0
 10 11  1  0  0  0  0
 10 26  1  0  0  0  0
 11 12  1  0  0  0  0
 11 16  2  0  0  0  0
 12 13  2  0  0  0  0
 12 27  1  0  0  0  0
 13 14  1  0  0  0  0
 13 28  1  0  0  0  0
 14 15  2  0  0  0  0
 14 29  1  0  0  0  0
 15 16  1  0  0  0  0
 15 30  1  0  0  0  0
 16 31  1  0  0  0  0
 17 18  1  0  0  0  0
 17 19  1  0  0  0  0
 18 32  1  0  0  0  0
 19 33  1  0  0  0  0
M  END
