
 OpenBabel09282512363D

 35 37  0  0  0  0  0  0  0  0999 V2000
    1.0570    0.0757    0.0319 C   0  0  0  0  0  0  0  0  0  0  0  0
    0.5837    1.3669   -0.3220 O   0  0  0  0  0  0  0  0  0  0  0  0
    0.9267    2.4917    0.4739 C   0  0  0  0  0  0  0  0  0  0  0  0
   -0.0051    3.4958    0.6789 C   0  0  0  0  0  0  0  0  0  0  0  0
    0.5618    4.7345    1.0613 C   0  0  0  0  0  0  0  0  0  0  0  0
   -0.2394    5.8987    0.9223 O   0  0  0  0  0  0  0  0  0  0  0  0
    0.2812    7.1671    1.2916 C   0  0  0  0  0  0  0  0  0  0  0  0
    1.7841    4.8833    1.5386 C   0  0  0  0  0  0  0  0  0  0  0  0
    2.6372    3.8291    1.3650 C   0  0  0  0  0  0  0  0  0  0  0  0
    4.1066    3.9883    1.7199 C   0  0  0  0  0  0  0  0  0  0  0  0
    5.0143    2.8845    1.5410 C   0  0  0  0  0  0  0  0  0  0  0  0
    4.5298    1.6300    1.0258 C   0  0  0  0  0  0  0  0  0  0  0  0
    5.3308    0.6559    0.8680 O   0  0  0  0  0  0  0  0  0  0  0  0
    3.0604    1.4708    0.6709 C   0  0  0  0  0  0  0  0  0  0  0  0
    2.3841    0.3300    1.0708 C   0  0  0  0  0  0  0  0  0  0  0  0
    1.1273    0.1592    0.4437 C   0  0  0  0  0  0  0  0  0  0  0  0
    0.4627    1.1179   -0.1755 C   0  0  0  0  0  0  0  0  0  0  0  0
    1.1696    2.2473   -0.4826 C   0  0  0  0  0  0  0  0  0  0  0  0
    2.4491    2.4288   -0.0159 C   0  0  0  0  0  0  0  0  0  0  0  0
    4.5593    5.1604    2.2011 O   0  0  0  0  0  0  0  0  0  0  0  0
    2.1855    2.6279    0.8742 C   0  0  0  0  0  0  0  0  0  0  0  0
    0.7004   -0.6417   -0.6773 H   0  0  0  0  0  0  0  0  0  0  0  0
    0.7004   -0.1798    1.0078 H   0  0  0  0  0  0  0  0  0  0  0  0
    2.1270    0.0757    0.0319 H   0  0  0  0  0  0  0  0  0  0  0  0
   -1.0580    3.3481    0.5589 H   0  0  0  0  0  0  0  0  0  0  0  0
    0.5440    7.1566    2.3287 H   0  0  0  0  0  0  0  0  0  0  0  0
    1.1507    7.3802    0.7055 H   0  0  0  0  0  0  0  0  0  0  0  0
   -0.4588    7.9204    1.1188 H   0  0  0  0  0  0  0  0  0  0  0  0
    2.0903    5.7806    2.0346 H   0  0  0  0  0  0  0  0  0  0  0  0
    6.0487    2.9966    1.7908 H   0  0  0  0  0  0  0  0  0  0  0  0
    2.7764   -0.3594    1.7888 H   0  0  0  0  0  0  0  0  0  0  0  0
    0.6845   -0.8144    0.4731 H   0  0  0  0  0  0  0  0  0  0  0  0
   -0.5732    1.0163   -0.4234 H   0  0  0  0  0  0  0  0  0  0  0  0
    0.7199    3.0005   -1.0952 H   0  0  0  0  0  0  0  0  0  0  0  0
    2.8540    1.7946    0.8141 H   0  0  0  0  0  0  0  0  0  0  0  0
  1  2  1  0  0  0  0
  1 22  1  0  0  0  0
  1 23  1  0  0  0  0
  1 24  1  0  0  0  0
  2  3  1  0  0  0  0
  3  4  1  0  0  0  0
  3 21  2  0  0  0  0
  4  5  2  0  0  0  0
  4 25  1  0  0  0  0
  5  6  1  0  0  0  0
  5  8  1  0  0  0  0
  6  7  1  0  0  0  0
  7 26  1  0  0  0  0
  7 27  1  0  0  0  0
  7 28  1  0  0  0  0
  8  9  2  0  0  0  0
  8 29  1  0  0  0  0
  9 10  1  0  0  0  0
  9 21  1  0  0  0  0
 10 11  2  0  0  0  0
 10 20  1  0  0  0  0
 11 12  1  0  0  0  0
 11 30  1  0  0  0  0
 12 13  2  0  0  0  0
 12 14  1  0  0  0  0
 14 15  1  0  0  0  0
 14 19  2  0  0  0  0
 15 16  2  0  0  0  0
 15 31  1  0  0  0  0
 16 17  1  0  0  0  0
 16 32  1  0  0  0  0
 17 18  2  0  0  0  0
 17 33  1  0  0  0  0
 18 19  1  0  0  0  0
 18 34  1  0  0  0  0
 19 20  1  0  0  0  0
 21 35  1  0  0  0  0
M  END
