
 OpenBabel09282512363D

 44 45  0  0  0  0  0  0  0  0999 V2000
    1.0803    0.0548    0.0235 C   0  0  0  0  0  0  0  0  0  0  0  0
    0.6070    0.3228   -1.2882 O   0  0  0  0  0  0  0  0  0  0  0  0
    0.9500    1.5413   -1.9316 C   0  0  0  0  0  0  0  0  0  0  0  0
    0.0276    2.3748   -2.5424 C   0  0  0  0  0  0  0  0  0  0  0  0
    0.6105    3.4377   -3.2722 C   0  0  0  0  0  0  0  0  0  0  0  0
    1.8553    3.8533   -3.1248 C   0  0  0  0  0  0  0  0  0  0  0  0
    2.3229    5.1918   -3.6727 C   0  0  0  0  0  0  0  0  0  0  0  0
    1.4502    5.9977   -4.3358 C   0  0  0  0  0  0  0  0  0  0  0  0
    1.9178    7.3362   -4.8837 C   0  0  0  0  0  0  0  0  0  0  0  0
    1.1026    8.0890   -5.5032 O   0  0  0  0  0  0  0  0  0  0  0  0
    3.3604    7.7743   -4.6906 C   0  0  0  0  0  0  0  0  0  0  0  0
    3.6290    9.0715   -4.2860 C   0  0  0  0  0  0  0  0  0  0  0  0
    4.9867    9.4454   -4.4232 C   0  0  0  0  0  0  0  0  0  0  0  0
    5.2951   10.8314   -4.4079 O   0  0  0  0  0  0  0  0  0  0  0  0
    6.6420   11.2606   -4.5419 C   0  0  0  0  0  0  0  0  0  0  0  0
    5.9871    8.5949   -4.5645 C   0  0  0  0  0  0  0  0  0  0  0  0
    7.3380    8.9916   -4.3800 O   0  0  0  0  0  0  0  0  0  0  0  0
    8.3843    8.0452   -4.5416 C   0  0  0  0  0  0  0  0  0  0  0  0
    5.6521    7.3120   -4.8981 C   0  0  0  0  0  0  0  0  0  0  0  0
    6.6753    6.3862   -5.2335 O   0  0  0  0  0  0  0  0  0  0  0  0
    6.3388    5.0513   -5.5814 C   0  0  0  0  0  0  0  0  0  0  0  0
    4.3397    6.9056   -4.9134 C   0  0  0  0  0  0  0  0  0  0  0  0
    2.7008    3.0149   -2.4529 C   0  0  0  0  0  0  0  0  0  0  0  0
    2.2273    1.8883   -1.8248 C   0  0  0  0  0  0  0  0  0  0  0  0
    0.7236   -0.9022    0.3428 H   0  0  0  0  0  0  0  0  0  0  0  0
    0.7236    0.8097    0.6926 H   0  0  0  0  0  0  0  0  0  0  0  0
    2.1503    0.0548    0.0235 H   0  0  0  0  0  0  0  0  0  0  0  0
   -1.0297    2.2283   -2.4689 H   0  0  0  0  0  0  0  0  0  0  0  0
    0.0003    3.9395   -3.9938 H   0  0  0  0  0  0  0  0  0  0  0  0
    3.3384    5.5003   -3.5368 H   0  0  0  0  0  0  0  0  0  0  0  0
    0.4347    5.6893   -4.4718 H   0  0  0  0  0  0  0  0  0  0  0  0
    2.8778    9.7311   -3.9043 H   0  0  0  0  0  0  0  0  0  0  0  0
    7.2263   10.8570   -3.7416 H   0  0  0  0  0  0  0  0  0  0  0  0
    7.0338   10.9190   -5.4771 H   0  0  0  0  0  0  0  0  0  0  0  0
    6.6808   12.3294   -4.5081 H   0  0  0  0  0  0  0  0  0  0  0  0
    8.2522    7.2449   -3.8438 H   0  0  0  0  0  0  0  0  0  0  0  0
    8.3628    7.6565   -5.5383 H   0  0  0  0  0  0  0  0  0  0  0  0
    9.3261    8.5210   -4.3645 H   0  0  0  0  0  0  0  0  0  0  0  0
    5.8284    4.5873   -4.7634 H   0  0  0  0  0  0  0  0  0  0  0  0
    5.7027    5.0565   -6.4418 H   0  0  0  0  0  0  0  0  0  0  0  0
    7.2316    4.5041   -5.8013 H   0  0  0  0  0  0  0  0  0  0  0  0
    4.1045    5.8798   -5.1065 H   0  0  0  0  0  0  0  0  0  0  0  0
    3.7464    3.2393   -2.4156 H   0  0  0  0  0  0  0  0  0  0  0  0
    2.8938    1.2852   -1.2443 H   0  0  0  0  0  0  0  0  0  0  0  0
  1  2  1  0  0  0  0
  1 25  1  0  0  0  0
  1 26  1  0  0  0  0
  1 27  1  0  0  0  0
  2  3  1  0  0  0  0
  3  4  1  0  0  0  0
  3 24  2  0  0  0  0
  4  5  2  0  0  0  0
  4 28  1  0  0  0  0
  5  6  1  0  0  0  0
  5 29  1  0  0  0  0
  6  7  1  0  0  0  0
  6 23  2  0  0  0  0
  7  8  2  0  0  0  0
  7 30  1  0  0  0  0
  8  9  1  0  0  0  0
  8 31  1  0  0  0  0
  9 10  2  0  0  0  0
  9 11  1  0  0  0  0
 11 12  1  0  0  0  0
 11 22  2  0  0  0  0
 12 13  2  0  0  0  0
 12 32  1  0  0  0  0
 13 14  1  0  0  0  0
 13 16  1  0  0  0  0
 14 15  1  0  0  0  0
 15 33  1  0  0  0  0
 15 34  1  0  0  0  0
 15 35  1  0  0  0  0
 16 17  1  0  0  0  0
 16 19  2  0  0  0  0
 17 18  1  0  0  0  0
 18 36  1  0  0  0  0
 18 37  1  0  0  0  0
 18 38  1  0  0  0  0
 19 20  1  0  0  0  0
 19 22  1  0  0  0  0
 20 21  1  0  0  0  0
 21 39  1  0  0  0  0
 21 40  1  0  0  0  0
 21 41  1  0  0  0  0
 22 42  1  0  0  0  0
 23 24  1  0  0  0  0
 23 43  1  0  0  0  0
 24 44  1  0  0  0  0
M  END
