
 OpenBabel09282512363D

 31 33  0  0  0  0  0  0  0  0999 V2000
    1.0634    0.0521    0.0571 C   0  0  0  0  0  0  0  0  0  0  0  0
    0.5901   -1.1320    0.6819 O   0  0  0  0  0  0  0  0  0  0  0  0
    0.9331   -2.4023    0.1479 C   0  0  0  0  0  0  0  0  0  0  0  0
   -0.1285   -3.2779   -0.0097 C   0  0  0  0  0  0  0  0  0  0  0  0
    0.2614   -4.5993   -0.3322 C   0  0  0  0  0  0  0  0  0  0  0  0
    1.4491   -4.9365   -0.8008 C   0  0  0  0  0  0  0  0  0  0  0  0
    1.7016   -6.2906   -1.4435 C   0  0  0  0  0  0  0  0  0  0  0  0
    3.0126   -6.6180   -1.9418 C   0  0  0  0  0  0  0  0  0  0  0  0
    4.0843   -5.6623   -1.8313 C   0  0  0  0  0  0  0  0  0  0  0  0
    5.2412   -5.9512   -2.2711 O   0  0  0  0  0  0  0  0  0  0  0  0
    3.8318   -4.3081   -1.1887 C   0  0  0  0  0  0  0  0  0  0  0  0
    4.4142   -3.1672   -1.7157 C   0  0  0  0  0  0  0  0  0  0  0  0
    4.4543   -2.0760   -0.8159 C   0  0  0  0  0  0  0  0  0  0  0  0
    3.7161   -1.9771    0.2747 C   0  0  0  0  0  0  0  0  0  0  0  0
    3.1117   -3.1251    0.7061 C   0  0  0  0  0  0  0  0  0  0  0  0
    3.1401   -4.2681   -0.0559 C   0  0  0  0  0  0  0  0  0  0  0  0
    0.7004   -7.1834   -1.5467 O   0  0  0  0  0  0  0  0  0  0  0  0
    2.4395   -4.0020   -0.6770 C   0  0  0  0  0  0  0  0  0  0  0  0
    2.1591   -2.7283   -0.2444 C   0  0  0  0  0  0  0  0  0  0  0  0
    0.7067    0.9059    0.5945 H   0  0  0  0  0  0  0  0  0  0  0  0
    0.7067    0.0906   -0.9509 H   0  0  0  0  0  0  0  0  0  0  0  0
    2.1334    0.0521    0.0571 H   0  0  0  0  0  0  0  0  0  0  0  0
   -1.1506   -2.9820    0.1023 H   0  0  0  0  0  0  0  0  0  0  0  0
   -0.4560   -5.3797   -0.1861 H   0  0  0  0  0  0  0  0  0  0  0  0
    3.1903   -7.5712   -2.3942 H   0  0  0  0  0  0  0  0  0  0  0  0
    4.7989   -3.1158   -2.7129 H   0  0  0  0  0  0  0  0  0  0  0  0
    5.1296   -1.2753   -1.0342 H   0  0  0  0  0  0  0  0  0  0  0  0
    3.5973   -1.0484    0.7927 H   0  0  0  0  0  0  0  0  0  0  0  0
    2.6093   -3.1336    1.6508 H   0  0  0  0  0  0  0  0  0  0  0  0
    3.4473   -4.2663   -0.9203 H   0  0  0  0  0  0  0  0  0  0  0  0
    2.9357   -1.9925   -0.2236 H   0  0  0  0  0  0  0  0  0  0  0  0
  1  2  1  0  0  0  0
  1 20  1  0  0  0  0
  1 21  1  0  0  0  0
  1 22  1  0  0  0  0
  2  3  1  0  0  0  0
  3  4  1  0  0  0  0
  3 19  2  0  0  0  0
  4  5  2  0  0  0  0
  4 23  1  0  0  0  0
  5  6  1  0  0  0  0
  5 24  1  0  0  0  0
  6  7  1  0  0  0  0
  6 18  2  0  0  0  0
  7  8  2  0  0  0  0
  7 17  1  0  0  0  0
  8  9  1  0  0  0  0
  8 25  1  0  0  0  0
  9 10  2  0  0  0  0
  9 11  1  0  0  0  0
 11 12  1  0  0  0  0
 11 16  2  0  0  0  0
 12 13  2  0  0  0  0
 12 26  1  0  0  0  0
 13 14  1  0  0  0  0
 13 27  1  0  0  0  0
 14 15  2  0  0  0  0
 14 28  1  0  0  0  0
 15 16  1  0  0  0  0
 15 29  1  0  0  0  0
 16 17  1  0  0  0  0
 18 19  1  0  0  0  0
 18 30  1  0  0  0  0
 19 31  1  0  0  0  0
M  END
