
 OpenBabel09282512363D

 45 46  0  0  0  0  0  0  0  0999 V2000
    0.9135    0.0379    0.0329 C   0  0  0  0  0  0  0  0  0  0  0  0
    0.4402    1.3337    0.3697 O   0  0  0  0  0  0  0  0  0  0  0  0
   -0.6669    1.5329    1.1204 C   0  0  0  0  0  0  0  0  0  0  0  0
   -1.0036    2.8310    1.4218 C   0  0  0  0  0  0  0  0  0  0  0  0
   -2.1387    3.0973    2.1628 C   0  0  0  0  0  0  0  0  0  0  0  0
   -2.5181    4.5355    2.4758 C   0  0  0  0  0  0  0  0  0  0  0  0
   -1.7404    5.5573    2.0263 C   0  0  0  0  0  0  0  0  0  0  0  0
   -2.1198    6.9955    2.3393 C   0  0  0  0  0  0  0  0  0  0  0  0
   -1.3933    7.9500    1.9194 O   0  0  0  0  0  0  0  0  0  0  0  0
   -3.3680    7.2921    3.1543 C   0  0  0  0  0  0  0  0  0  0  0  0
   -4.5869    6.7393    2.4338 C   0  0  0  0  0  0  0  0  0  0  0  0
   -4.4373    5.2362    2.2651 C   0  0  0  0  0  0  0  0  0  0  0  0
   -4.3170    4.5824    3.6320 C   0  0  0  0  0  0  0  0  0  0  0  0
   -5.5652    4.8790    4.4471 C   0  0  0  0  0  0  0  0  0  0  0  0
   -5.9217    6.1968    4.6818 C   0  0  0  0  0  0  0  0  0  0  0  0
   -6.9015    6.3548    5.6902 C   0  0  0  0  0  0  0  0  0  0  0  0
   -7.6852    5.3876    6.1311 C   0  0  0  0  0  0  0  0  0  0  0  0
   -7.3164    4.1112    5.8081 C   0  0  0  0  0  0  0  0  0  0  0  0
   -6.2851    3.8740    4.9318 C   0  0  0  0  0  0  0  0  0  0  0  0
   -2.9261    2.0676    2.6182 C   0  0  0  0  0  0  0  0  0  0  0  0
   -2.5826    0.7612    2.3479 C   0  0  0  0  0  0  0  0  0  0  0  0
   -1.4404    0.4559    1.6004 C   0  0  0  0  0  0  0  0  0  0  0  0
   -1.0731   -0.8898    1.3345 O   0  0  0  0  0  0  0  0  0  0  0  0
    0.5569   -0.2304   -0.9396 H   0  0  0  0  0  0  0  0  0  0  0  0
    0.5569   -0.6701    0.7515 H   0  0  0  0  0  0  0  0  0  0  0  0
    1.9835    0.0379    0.0329 H   0  0  0  0  0  0  0  0  0  0  0  0
   -0.3860    3.6361    1.0821 H   0  0  0  0  0  0  0  0  0  0  0  0
   -3.3968    4.7443    3.0495 H   0  0  0  0  0  0  0  0  0  0  0  0
   -0.8617    5.3484    1.4526 H   0  0  0  0  0  0  0  0  0  0  0  0
   -3.2834    6.8319    4.1166 H   0  0  0  0  0  0  0  0  0  0  0  0
   -3.4733    8.3503    3.2731 H   0  0  0  0  0  0  0  0  0  0  0  0
   -5.4656    6.9482    3.0076 H   0  0  0  0  0  0  0  0  0  0  0  0
   -4.6715    7.1996    1.4715 H   0  0  0  0  0  0  0  0  0  0  0  0
   -5.2953    4.8470    1.7579 H   0  0  0  0  0  0  0  0  0  0  0  0
   -3.5586    5.0274    1.6913 H   0  0  0  0  0  0  0  0  0  0  0  0
   -4.2117    3.5242    3.5133 H   0  0  0  0  0  0  0  0  0  0  0  0
   -3.4590    4.9715    4.1393 H   0  0  0  0  0  0  0  0  0  0  0  0
   -5.4948    7.0205    4.1488 H   0  0  0  0  0  0  0  0  0  0  0  0
   -7.0155    7.3254    6.1259 H   0  0  0  0  0  0  0  0  0  0  0  0
   -8.5616    5.5918    6.7100 H   0  0  0  0  0  0  0  0  0  0  0  0
   -7.8384    3.2852    6.2441 H   0  0  0  0  0  0  0  0  0  0  0  0
   -6.0600    2.8703    4.6371 H   0  0  0  0  0  0  0  0  0  0  0  0
   -3.8087    2.2810    3.1843 H   0  0  0  0  0  0  0  0  0  0  0  0
   -3.1991   -0.0323    2.7155 H   0  0  0  0  0  0  0  0  0  0  0  0
   -0.2526   -1.0875    0.7980 H   0  0  0  0  0  0  0  0  0  0  0  0
  1  2  1  0  0  0  0
  1 24  1  0  0  0  0
  1 25  1  0  0  0  0
  1 26  1  0  0  0  0
  2  3  1  0  0  0  0
  3  4  1  0  0  0  0
  3 22  2  0  0  0  0
  4  5  2  0  0  0  0
  4 27  1  0  0  0  0
  5  6  1  0  0  0  0
  5 20  1  0  0  0  0
  6  7  2  0  0  0  0
  6 28  1  0  0  0  0
  7  8  1  0  0  0  0
  7 29  1  0  0  0  0
  8  9  2  0  0  0  0
  8 10  1  0  0  0  0
 10 11  1  0  0  0  0
 10 30  1  0  0  0  0
 10 31  1  0  0  0  0
 11 12  1  0  0  0  0
 11 32  1  0  0  0  0
 11 33  1  0  0  0  0
 12 13  1  0  0  0  0
 12 34  1  0  0  0  0
 12 35  1  0  0  0  0
 13 14  1  0  0  0  0
 13 36  1  0  0  0  0
 13 37  1  0  0  0  0
 14 15  1  0  0  0  0
 14 19  2  0  0  0  0
 15 16  2  0  0  0  0
 15 38  1  0  0  0  0
 16 17  1  0  0  0  0
 16 39  1  0  0  0  0
 17 18  2  0  0  0  0
 17 40  1  0  0  0  0
 18 19  1  0  0  0  0
 18 41  1  0  0  0  0
 19 42  1  0  0  0  0
 20 21  2  0  0  0  0
 20 43  1  0  0  0  0
 21 22  1  0  0  0  0
 21 44  1  0  0  0  0
 22 23  1  0  0  0  0
 23 45  1  0  0  0  0
M  END
