
 OpenBabel09282512363D

 35 37  0  0  0  0  0  0  0  0999 V2000
    0.9070    0.0303    0.0210 C   0  0  0  0  0  0  0  0  0  0  0  0
    0.4337   -0.9634    0.9181 O   0  0  0  0  0  0  0  0  0  0  0  0
    0.7767   -2.3261    0.7135 C   0  0  0  0  0  0  0  0  0  0  0  0
   -0.2165   -3.2845    0.8292 C   0  0  0  0  0  0  0  0  0  0  0  0
    0.2717   -4.6109    0.8966 C   0  0  0  0  0  0  0  0  0  0  0  0
    1.4848   -4.9820    0.5296 C   0  0  0  0  0  0  0  0  0  0  0  0
    1.8412   -6.4419    0.3018 C   0  0  0  0  0  0  0  0  0  0  0  0
    3.1767   -6.8033   -0.0980 C   0  0  0  0  0  0  0  0  0  0  0  0
    4.1747   -5.7813   -0.2819 C   0  0  0  0  0  0  0  0  0  0  0  0
    5.3533   -6.1002   -0.6347 O   0  0  0  0  0  0  0  0  0  0  0  0
    3.8184   -4.3213   -0.0541 C   0  0  0  0  0  0  0  0  0  0  0  0
    4.2528   -3.3758   -0.9683 C   0  0  0  0  0  0  0  0  0  0  0  0
    4.1430   -2.0418   -0.5094 C   0  0  0  0  0  0  0  0  0  0  0  0
    3.3882   -1.6582    0.5041 C   0  0  0  0  0  0  0  0  0  0  0  0
    2.9337   -2.6468    1.3322 C   0  0  0  0  0  0  0  0  0  0  0  0
    3.1170   -3.9717    1.0178 C   0  0  0  0  0  0  0  0  0  0  0  0
    0.9089   -7.3967    0.4736 O   0  0  0  0  0  0  0  0  0  0  0  0
    2.4030   -3.9822    0.3657 C   0  0  0  0  0  0  0  0  0  0  0  0
    2.0266   -2.6618    0.4159 C   0  0  0  0  0  0  0  0  0  0  0  0
    2.9827   -1.6468    0.1473 O   0  0  0  0  0  0  0  0  0  0  0  0
    2.6005   -0.2802    0.1975 C   0  0  0  0  0  0  0  0  0  0  0  0
    0.5504    0.9901    0.3315 H   0  0  0  0  0  0  0  0  0  0  0  0
    0.5504   -0.1807   -0.9655 H   0  0  0  0  0  0  0  0  0  0  0  0
    1.9770    0.0303    0.0210 H   0  0  0  0  0  0  0  0  0  0  0  0
   -1.2585   -3.0438    0.8643 H   0  0  0  0  0  0  0  0  0  0  0  0
   -0.3879   -5.3657    1.2709 H   0  0  0  0  0  0  0  0  0  0  0  0
    3.4276   -7.8310   -0.2584 H   0  0  0  0  0  0  0  0  0  0  0  0
    4.6367   -3.6309   -1.9339 H   0  0  0  0  0  0  0  0  0  0  0  0
    4.7109   -1.2917   -1.0190 H   0  0  0  0  0  0  0  0  0  0  0  0
    3.1454   -0.6292    0.6685 H   0  0  0  0  0  0  0  0  0  0  0  0
    2.4280   -2.3848    2.2380 H   0  0  0  0  0  0  0  0  0  0  0  0
    3.4296   -4.2318    0.1958 H   0  0  0  0  0  0  0  0  0  0  0  0
    1.8248   -0.1002   -0.5172 H   0  0  0  0  0  0  0  0  0  0  0  0
    2.2432   -0.0455    1.1784 H   0  0  0  0  0  0  0  0  0  0  0  0
    3.4456    0.3351   -0.0309 H   0  0  0  0  0  0  0  0  0  0  0  0
  1  2  1  0  0  0  0
  1 22  1  0  0  0  0
  1 23  1  0  0  0  0
  1 24  1  0  0  0  0
  2  3  1  0  0  0  0
  3  4  1  0  0  0  0
  3 19  2  0  0  0  0
  4  5  2  0  0  0  0
  4 25  1  0  0  0  0
  5  6  1  0  0  0  0
  5 26  1  0  0  0  0
  6  7  1  0  0  0  0
  6 18  2  0  0  0  0
  7  8  2  0  0  0  0
  7 17  1  0  0  0  0
  8  9  1  0  0  0  0
  8 27  1  0  0  0  0
  9 10  2  0  0  0  0
  9 11  1  0  0  0  0
 11 12  1  0  0  0  0
 11 16  2  0  0  0  0
 12 13  2  0  0  0  0
 12 28  1  0  0  0  0
 13 14  1  0  0  0  0
 13 29  1  0  0  0  0
 14 15  2  0  0  0  0
 14 30  1  0  0  0  0
 15 16  1  0  0  0  0
 15 31  1  0  0  0  0
 16 17  1  0  0  0  0
 18 19  1  0  0  0  0
 18 32  1  0  0  0  0
 19 20  1  0  0  0  0
 20 21  1  0  0  0  0
 21 33  1  0  0  0  0
 21 34  1  0  0  0  0
 21 35  1  0  0  0  0
M  END
