
 OpenBabel09282512363D

 32 33  0  0  0  0  0  0  0  0999 V2000
    1.0699    0.0319    0.0640 C   0  0  0  0  0  0  0  0  0  0  0  0
    0.5966   -1.2834    0.3137 O   0  0  0  0  0  0  0  0  0  0  0  0
    0.9396   -2.3410   -0.5696 C   0  0  0  0  0  0  0  0  0  0  0  0
   -0.1366   -3.0877   -1.0199 C   0  0  0  0  0  0  0  0  0  0  0  0
    0.2316   -4.2299   -1.7694 C   0  0  0  0  0  0  0  0  0  0  0  0
    1.4182   -4.4147   -2.3188 C   0  0  0  0  0  0  0  0  0  0  0  0
    1.6523   -5.4762   -3.3812 C   0  0  0  0  0  0  0  0  0  0  0  0
    0.6240   -6.2674   -3.7904 C   0  0  0  0  0  0  0  0  0  0  0  0
   -0.7589   -6.0899   -3.1852 C   0  0  0  0  0  0  0  0  0  0  0  0
   -1.3625   -7.2491   -2.7266 C   0  0  0  0  0  0  0  0  0  0  0  0
   -2.7123   -7.0777   -2.3383 C   0  0  0  0  0  0  0  0  0  0  0  0
   -3.5199   -8.2401   -2.2251 O   0  0  0  0  0  0  0  0  0  0  0  0
   -3.2732   -5.9117   -2.0737 C   0  0  0  0  0  0  0  0  0  0  0  0
   -2.5942   -4.8013   -2.4924 C   0  0  0  0  0  0  0  0  0  0  0  0
   -3.2118   -3.5262   -2.3974 O   0  0  0  0  0  0  0  0  0  0  0  0
   -1.3228   -4.9014   -3.0038 C   0  0  0  0  0  0  0  0  0  0  0  0
    2.4248   -3.5997   -1.8806 C   0  0  0  0  0  0  0  0  0  0  0  0
    2.1638   -2.5421   -1.0432 C   0  0  0  0  0  0  0  0  0  0  0  0
    0.7133    0.6904    0.8282 H   0  0  0  0  0  0  0  0  0  0  0  0
    0.7133    0.3645   -0.8884 H   0  0  0  0  0  0  0  0  0  0  0  0
    2.1399    0.0319    0.0640 H   0  0  0  0  0  0  0  0  0  0  0  0
   -1.1542   -2.8245   -0.8192 H   0  0  0  0  0  0  0  0  0  0  0  0
   -0.5025   -4.9974   -1.9001 H   0  0  0  0  0  0  0  0  0  0  0  0
    2.6258   -5.6012   -3.8072 H   0  0  0  0  0  0  0  0  0  0  0  0
    0.7888   -7.0147   -4.5383 H   0  0  0  0  0  0  0  0  0  0  0  0
   -0.8542   -8.1890   -2.6710 H   0  0  0  0  0  0  0  0  0  0  0  0
   -4.4787   -8.1583   -1.9531 H   0  0  0  0  0  0  0  0  0  0  0  0
   -4.2087   -5.8399   -1.5594 H   0  0  0  0  0  0  0  0  0  0  0  0
   -2.7217   -2.7093   -2.7015 H   0  0  0  0  0  0  0  0  0  0  0  0
   -0.7822   -4.0137   -3.2581 H   0  0  0  0  0  0  0  0  0  0  0  0
    3.4302   -3.7883   -2.1942 H   0  0  0  0  0  0  0  0  0  0  0  0
    2.9541   -1.8744   -0.7703 H   0  0  0  0  0  0  0  0  0  0  0  0
  1  2  1  0  0  0  0
  1 19  1  0  0  0  0
  1 20  1  0  0  0  0
  1 21  1  0  0  0  0
  2  3  1  0  0  0  0
  3  4  1  0  0  0  0
  3 18  2  0  0  0  0
  4  5  2  0  0  0  0
  4 22  1  0  0  0  0
  5  6  1  0  0  0  0
  5 23  1  0  0  0  0
  6  7  1  0  0  0  0
  6 17  2  0  0  0  0
  7  8  2  0  0  0  0
  7 24  1  0  0  0  0
  8  9  1  0  0  0  0
  8 25  1  0  0  0  0
  9 10  1  0  0  0  0
  9 16  2  0  0  0  0
 10 11  2  0  0  0  0
 10 26  1  0  0  0  0
 11 12  1  0  0  0  0
 11 13  1  0  0  0  0
 12 27  1  0  0  0  0
 13 14  2  0  0  0  0
 13 28  1  0  0  0  0
 14 15  1  0  0  0  0
 14 16  1  0  0  0  0
 15 29  1  0  0  0  0
 16 30  1  0  0  0  0
 17 18  1  0  0  0  0
 17 31  1  0  0  0  0
 18 32  1  0  0  0  0
M  END
