
 OpenBabel09282512363D

 34 35  0  0  0  0  0  0  0  0999 V2000
    0.9556    0.0036   -0.0895 C   0  0  0  0  0  0  0  0  0  0  0  0
    0.4822   -0.9308    0.8693 O   0  0  0  0  0  0  0  0  0  0  0  0
    0.8253   -2.3037    0.7521 C   0  0  0  0  0  0  0  0  0  0  0  0
   -0.1470   -3.2751    0.9247 C   0  0  0  0  0  0  0  0  0  0  0  0
    0.3701   -4.5839    1.0720 C   0  0  0  0  0  0  0  0  0  0  0  0
    1.5917   -4.9496    0.7286 C   0  0  0  0  0  0  0  0  0  0  0  0
    1.9804   -6.4125    0.5892 C   0  0  0  0  0  0  0  0  0  0  0  0
    1.0588   -7.3861    0.8201 C   0  0  0  0  0  0  0  0  0  0  0  0
    1.4475   -8.8490    0.6807 C   0  0  0  0  0  0  0  0  0  0  0  0
    0.5866   -9.7586    0.8965 O   0  0  0  0  0  0  0  0  0  0  0  0
    2.8659   -9.2239    0.2832 C   0  0  0  0  0  0  0  0  0  0  0  0
    3.0613  -10.1971   -0.6829 C   0  0  0  0  0  0  0  0  0  0  0  0
    4.3944  -10.6644   -0.7644 C   0  0  0  0  0  0  0  0  0  0  0  0
    5.4414  -10.0321   -0.2664 C   0  0  0  0  0  0  0  0  0  0  0  0
    6.7682  -10.3698   -0.6433 O   0  0  0  0  0  0  0  0  0  0  0  0
    5.1792   -9.0349    0.6315 C   0  0  0  0  0  0  0  0  0  0  0  0
    3.8924   -8.6121    0.8622 C   0  0  0  0  0  0  0  0  0  0  0  0
    3.6581   -7.5110    1.7277 O   0  0  0  0  0  0  0  0  0  0  0  0
    2.4881   -3.9416    0.5054 C   0  0  0  0  0  0  0  0  0  0  0  0
    2.0827   -2.6291    0.4759 C   0  0  0  0  0  0  0  0  0  0  0  0
    0.5989    0.9813    0.1590 H   0  0  0  0  0  0  0  0  0  0  0  0
    0.5989   -0.2700   -1.0605 H   0  0  0  0  0  0  0  0  0  0  0  0
    2.0256    0.0036   -0.0895 H   0  0  0  0  0  0  0  0  0  0  0  0
   -1.1940   -3.0556    0.9448 H   0  0  0  0  0  0  0  0  0  0  0  0
   -0.2734   -5.3292    1.4906 H   0  0  0  0  0  0  0  0  0  0  0  0
    2.9789   -6.6764    0.3094 H   0  0  0  0  0  0  0  0  0  0  0  0
    0.0604   -7.1222    1.1000 H   0  0  0  0  0  0  0  0  0  0  0  0
    2.2755  -10.5624   -1.3105 H   0  0  0  0  0  0  0  0  0  0  0  0
    4.5661  -11.5947   -1.2642 H   0  0  0  0  0  0  0  0  0  0  0  0
    7.5416   -9.8732   -0.2493 H   0  0  0  0  0  0  0  0  0  0  0  0
    5.9878   -8.5772    1.1622 H   0  0  0  0  0  0  0  0  0  0  0  0
    2.7234   -7.1996    1.8988 H   0  0  0  0  0  0  0  0  0  0  0  0
    3.5202   -4.1783    0.3513 H   0  0  0  0  0  0  0  0  0  0  0  0
    2.7866   -1.8622    0.2282 H   0  0  0  0  0  0  0  0  0  0  0  0
  1  2  1  0  0  0  0
  1 21  1  0  0  0  0
  1 22  1  0  0  0  0
  1 23  1  0  0  0  0
  2  3  1  0  0  0  0
  3  4  1  0  0  0  0
  3 20  2  0  0  0  0
  4  5  2  0  0  0  0
  4 24  1  0  0  0  0
  5  6  1  0  0  0  0
  5 25  1  0  0  0  0
  6  7  1  0  0  0  0
  6 19  2  0  0  0  0
  7  8  2  0  0  0  0
  7 26  1  0  0  0  0
  8  9  1  0  0  0  0
  8 27  1  0  0  0  0
  9 10  2  0  0  0  0
  9 11  1  0  0  0  0
 11 12  1  0  0  0  0
 11 17  2  0  0  0  0
 12 13  2  0  0  0  0
 12 28  1  0  0  0  0
 13 14  1  0  0  0  0
 13 29  1  0  0  0  0
 14 15  1  0  0  0  0
 14 16  2  0  0  0  0
 15 30  1  0  0  0  0
 16 17  1  0  0  0  0
 16 31  1  0  0  0  0
 17 18  1  0  0  0  0
 18 32  1  0  0  0  0
 19 20  1  0  0  0  0
 19 33  1  0  0  0  0
 20 34  1  0  0  0  0
M  END
