Ligand_5_out_COX2_5IKR.pdb
 OpenBabel10022510513D

 22 23  0  0  0  0  0  0  0  0999 V2000
   34.0350   24.2310   68.6170 C   0  0  0  0  0  0  0  0  0  0  0  0
   34.2520   24.3640   67.3710 O   0  0  0  0  0  0  0  0  0  0  0  0
   34.1110   25.4420   69.5340 C   0  0  0  0  0  0  0  0  0  0  0  0
   32.9380   26.0060   70.0080 C   0  0  0  0  0  0  0  0  0  0  0  0
   33.1110   27.2820   70.5950 C   0  0  0  0  0  0  0  0  0  0  0  0
   34.2700   27.7670   71.0020 C   0  0  0  0  0  0  0  0  0  0  0  0
   35.3910   27.1240   70.5540 C   0  0  0  0  0  0  0  0  0  0  0  0
   35.2970   25.9420   69.8610 C   0  0  0  0  0  0  0  0  0  0  0  0
   34.3480   28.8950   71.8600 O   0  0  0  0  0  0  0  0  0  0  0  0
   35.1220   28.9950   72.4860 H   0  0  0  0  0  0  0  0  0  0  0  0
   36.4780   25.2470   69.4910 O   0  0  0  0  0  0  0  0  0  0  0  0
   36.4670   24.2510   69.4060 H   0  0  0  0  0  0  0  0  0  0  0  0
   32.4490   22.3530   69.0450 C   0  0  0  0  0  0  0  0  0  0  0  0
   33.7010   22.8640   69.1900 C   0  0  0  0  0  0  0  0  0  0  0  0
   31.7400   18.4540   70.6400 C   0  0  0  0  0  0  0  0  0  0  0  0
   32.1510   19.4600   71.5000 C   0  0  0  0  0  0  0  0  0  0  0  0
   32.1440   20.7490   70.9180 C   0  0  0  0  0  0  0  0  0  0  0  0
   32.1150   20.9860   69.6190 C   0  0  0  0  0  0  0  0  0  0  0  0
   31.7670   19.9340   68.8180 C   0  0  0  0  0  0  0  0  0  0  0  0
   31.6280   18.6680   69.3350 C   0  0  0  0  0  0  0  0  0  0  0  0
   30.2670   16.4860   70.5980 C   0  0  0  0  0  0  0  0  0  0  0  0
   31.3590   17.1920   71.1670 O   0  0  0  0  0  0  0  0  0  0  0  0
  1  2  2  0  0  0  0
  1 14  1  0  0  0  0
  1  3  1  0  0  0  0
  3  8  2  0  0  0  0
  3  4  1  0  0  0  0
  4  5  2  0  0  0  0
  5  6  1  0  0  0  0
  6  7  2  0  0  0  0
  6  9  1  0  0  0  0
  7  8  1  0  0  0  0
  8 11  1  0  0  0  0
  9 10  1  0  0  0  0
 11 12  1  0  0  0  0
 13 14  2  0  0  0  0
 13 18  1  0  0  0  0
 15 20  2  0  0  0  0
 15 22  1  0  0  0  0
 15 16  1  0  0  0  0
 16 17  2  0  0  0  0
 17 18  1  0  0  0  0
 18 19  2  0  0  0  0
 19 20  1  0  0  0  0
 21 22  1  0  0  0  0
M  END
