Ligand_5_out_5LOX_6NCF.pdb
 OpenBabel10022510513D

 22 23  0  0  0  0  0  0  0  0999 V2000
   11.4160  -22.6630  -19.4470 C   0  0  0  0  0  0  0  0  0  0  0  0
   11.2710  -23.5800  -20.3150 O   0  0  0  0  0  0  0  0  0  0  0  0
   12.8060  -22.1380  -19.1210 C   0  0  0  0  0  0  0  0  0  0  0  0
   13.2080  -20.9190  -19.6400 C   0  0  0  0  0  0  0  0  0  0  0  0
   14.5960  -20.6750  -19.5230 C   0  0  0  0  0  0  0  0  0  0  0  0
   15.4040  -21.3250  -18.7050 C   0  0  0  0  0  0  0  0  0  0  0  0
   14.9230  -22.4880  -18.1710 C   0  0  0  0  0  0  0  0  0  0  0  0
   13.6130  -22.8590  -18.3510 C   0  0  0  0  0  0  0  0  0  0  0  0
   16.7020  -20.8400  -18.3940 O   0  0  0  0  0  0  0  0  0  0  0  0
   17.4660  -21.0270  -19.0100 H   0  0  0  0  0  0  0  0  0  0  0  0
   13.1150  -24.0220  -17.7070 O   0  0  0  0  0  0  0  0  0  0  0  0
   13.2020  -24.1220  -16.7160 H   0  0  0  0  0  0  0  0  0  0  0  0
    9.8660  -22.5380  -17.4950 C   0  0  0  0  0  0  0  0  0  0  0  0
   10.2020  -22.0900  -18.7350 C   0  0  0  0  0  0  0  0  0  0  0  0
    6.3160  -21.0620  -15.6340 C   0  0  0  0  0  0  0  0  0  0  0  0
    6.8510  -22.2610  -15.1900 C   0  0  0  0  0  0  0  0  0  0  0  0
    8.1330  -22.5450  -15.7160 C   0  0  0  0  0  0  0  0  0  0  0  0
    8.6520  -21.9650  -16.7830 C   0  0  0  0  0  0  0  0  0  0  0  0
    8.0380  -20.8220  -17.2120 C   0  0  0  0  0  0  0  0  0  0  0  0
    6.8500  -20.4080  -16.6590 C   0  0  0  0  0  0  0  0  0  0  0  0
    3.8950  -20.8620  -15.2540 C   0  0  0  0  0  0  0  0  0  0  0  0
    5.2250  -20.4790  -14.9370 O   0  0  0  0  0  0  0  0  0  0  0  0
  1  2  2  0  0  0  0
  1  3  1  0  0  0  0
  1 14  1  0  0  0  0
  3  4  2  0  0  0  0
  3  8  1  0  0  0  0
  4  5  1  0  0  0  0
  5  6  2  0  0  0  0
  6  9  1  0  0  0  0
  6  7  1  0  0  0  0
  7  8  2  0  0  0  0
  8 11  1  0  0  0  0
  9 10  1  0  0  0  0
 11 12  1  0  0  0  0
 13 14  2  0  0  0  0
 13 18  1  0  0  0  0
 15 20  2  0  0  0  0
 15 16  1  0  0  0  0
 15 22  1  0  0  0  0
 16 17  2  0  0  0  0
 17 18  1  0  0  0  0
 18 19  2  0  0  0  0
 19 20  1  0  0  0  0
 21 22  1  0  0  0  0
M  END
